MODEL 1
REMARK VINA RESULT:      -7.5      0.000      0.000
REMARK  3 active torsions:
REMARK  status: ('A' for Active; 'I' for Inactive)
REMARK    1  A    between atoms: C_5  and  C_15 
REMARK    2  A    between atoms: C_15  and  C_16 
REMARK    3  A    between atoms: C_16  and  C_17 
ROOT
HETATM    1  O   LIG     1     -20.632 -15.832 -13.037  1.00  0.00    -0.287 OA
HETATM    2  O   LIG     1     -20.222 -16.723 -11.021  1.00  0.00    -0.238 OA
HETATM    3  N   LIG     1     -21.312 -14.665 -11.082  1.00  0.00    -0.300 N 
HETATM    4  C   LIG     1     -21.795 -13.504 -11.885  1.00  0.00     0.071 C 
HETATM    5  C   LIG     1     -22.260 -14.050 -13.260  1.00  0.00     0.047 C 
HETATM    6  C   LIG     1     -21.049 -14.734 -13.885  1.00  0.00     0.128 C 
HETATM    7  C   LIG     1     -20.635 -12.487 -12.069  1.00  0.00     0.021 C 
HETATM    8  C   LIG     1     -22.999 -12.820 -11.182  1.00  0.00     0.021 C 
HETATM    9  C   LIG     1     -19.862 -13.793 -14.111  1.00  0.00     0.030 C 
HETATM   10  C   LIG     1     -19.443 -13.056 -12.842  1.00  0.00     0.004 C 
HETATM   11  C   LIG     1     -22.786 -12.569  -9.694  1.00  0.00     0.004 C 
HETATM   12  C   LIG     1     -21.201 -14.502  -9.628  1.00  0.00     0.106 C 
HETATM   13  C   LIG     1     -22.435 -13.875  -9.001  1.00  0.00     0.024 C 
HETATM   14  C   LIG     1     -20.697 -15.788 -11.667  1.00  0.00     0.365 C 
ENDROOT
BRANCH   5  15
HETATM   15  C   LIG     1     -22.888 -13.023 -14.207  1.00  0.00     0.004 C 
BRANCH  15  16
HETATM   16  C   LIG     1     -23.815 -13.698 -15.210  1.00  0.00     0.000 C 
BRANCH  16  17
HETATM   17  C   LIG     1     -24.494 -12.663 -16.109  1.00  0.00     0.000 C 
HETATM   18  C   LIG     1     -24.065 -12.818 -17.559  1.00  0.00     0.000 C 
ENDBRANCH  16  17
ENDBRANCH  15  16
ENDBRANCH   5  15
TORSDOF 3
ENDMDL
