MODEL 1
REMARK VINA RESULT:      -7.1      0.000      0.000
REMARK  4 active torsions:
REMARK  status: ('A' for Active; 'I' for Inactive)
REMARK    1  A    between atoms: C_4  and  C_6 
REMARK    2  A    between atoms: C_5  and  C_14 
REMARK    3  A    between atoms: C_7  and  N_16 
REMARK    4  A    between atoms: C_10  and  N_19 
ROOT
HETATM    1  N   LIG     1     -19.062 -20.641 -11.170  1.00  0.00    -0.066 NA
HETATM    2  N   LIG     1     -18.847 -19.288  -9.188  1.00  0.00    -0.045 NA
HETATM    3  C   LIG     1     -19.172 -18.240 -11.332  1.00  0.00     0.048 A 
HETATM    4  C   LIG     1     -19.200 -19.506 -11.886  1.00  0.00     0.080 A 
HETATM    5  C   LIG     1     -18.991 -18.193  -9.964  1.00  0.00     0.153 A 
HETATM    6  C   LIG     1     -18.891 -20.462  -9.846  1.00  0.00     0.722 A 
ENDROOT
BRANCH   3   7
HETATM    7  C   LIG     1     -19.324 -17.050 -12.141  1.00  0.00     0.004 A 
HETATM    8  C   LIG     1     -18.198 -16.400 -12.644  1.00  0.00     0.001 A 
HETATM    9  C   LIG     1     -18.344 -15.253 -13.423  1.00  0.00     0.011 A 
HETATM   10  C   LIG     1     -19.618 -14.755 -13.699  1.00  0.00     0.058 A 
HETATM   11 CL   LIG     1     -19.799 -13.339 -14.659  1.00  0.00    -0.082 Cl
HETATM   12  C   LIG     1     -20.744 -15.405 -13.196  1.00  0.00     0.011 A 
HETATM   13  C   LIG     1     -20.598 -16.553 -12.416  1.00  0.00     0.001 A 
ENDBRANCH   3   7
BRANCH   5  14
HETATM   14  N   LIG     1     -18.953 -16.929  -9.324  1.00  0.00    -0.383 N 
HETATM   15  H   LIG     1     -18.380 -16.220  -9.766  1.00  0.00     0.157 HD
HETATM   16  H   LIG     1     -19.767 -16.615  -8.812  1.00  0.00     0.157 HD
ENDBRANCH   5  14
BRANCH   4  17
HETATM   17  C   LIG     1     -19.388 -19.697 -13.356  1.00  0.00     0.047 C 
HETATM   18  C   LIG     1     -19.859 -21.109 -13.696  1.00  0.00     0.007 C 
ENDBRANCH   4  17
BRANCH   6  19
HETATM   19  N   LIG     1     -18.745 -21.628  -9.065  1.00  0.00    -0.231 N 
HETATM   20  H   LIG     1     -19.400 -22.390  -9.180  1.00  0.00     0.174 HD
HETATM   21  H   LIG     1     -17.987 -21.689  -8.400  1.00  0.00     0.174 HD
ENDBRANCH   6  19
TORSDOF 4
ENDMDL
