MODEL 1
REMARK VINA RESULT:      -7.7      0.000      0.000
REMARK  9 active torsions:
REMARK  status: ('A' for Active; 'I' for Inactive)
REMARK    1  A    between atoms: O_4  and  C_22 
REMARK    2  A    between atoms: O_5  and  C_21 
REMARK    3  A    between atoms: N_6  and  C_12 
REMARK    4  A    between atoms: N_7  and  C_15 
REMARK    5  A    between atoms: N_7  and  C_16 
REMARK    6  A    between atoms: N_8  and  N_9 
REMARK    7  A    between atoms: N_8  and  C_16 
REMARK    8  A    between atoms: C_12  and  C_15 
REMARK    9  A    between atoms: C_17  and  C_18 
ROOT
HETATM    1  N   LIG     1     -19.740 -20.924 -14.067  1.00  0.00    -0.254 N 
HETATM    2  H   LIG     1     -19.176 -20.558 -14.826  1.00  0.00     0.191 HD
ENDROOT
BRANCH   1   3
HETATM    3  N   LIG     1     -20.807 -21.699 -14.378  1.00  0.00    -0.184 NA
HETATM    4  C   LIG     1     -21.878 -21.032 -14.656  1.00  0.00     0.151 C 
BRANCH   4   5
HETATM    5  C   LIG     1     -23.140 -21.700 -15.019  1.00  0.00     0.003 A 
HETATM    6  C   LIG     1     -23.147 -23.088 -15.020  1.00  0.00     0.053 A 
HETATM    7  C   LIG     1     -24.317 -23.767 -15.356  1.00  0.00     0.099 A 
HETATM    8  C   LIG     1     -25.468 -23.053 -15.688  1.00  0.00     0.102 A 
HETATM    9  C   LIG     1     -25.448 -21.658 -15.684  1.00  0.00     0.059 A 
HETATM   10  C   LIG     1     -24.278 -20.979 -15.347  1.00  0.00     0.025 A 
HETATM   11 BR   LIG     1     -24.305 -19.080 -15.356  1.00  0.00    -0.050 Br
BRANCH   7  12
HETATM   12  O   LIG     1     -24.324 -25.130 -15.356  1.00  0.00    -0.358 OA
HETATM   13  H   LIG     1     -23.537 -25.443 -14.876  1.00  0.00     0.217 HD
ENDBRANCH   7  12
BRANCH   8  14
HETATM   14  O   LIG     1     -26.618 -23.705 -16.018  1.00  0.00    -0.353 OA
HETATM   15  C   LIG     1     -26.784 -24.075 -17.384  1.00  0.00     0.210 C 
ENDBRANCH   8  14
ENDBRANCH   4   5
ENDBRANCH   1   3
BRANCH   1  16
HETATM   16  C   LIG     1     -19.425 -20.637 -12.752  1.00  0.00     0.188 C 
HETATM   17  S   LIG     1     -19.291 -21.894 -11.647  1.00  0.00    -0.040 SA
BRANCH  16  18
HETATM   18  N   LIG     1     -19.244 -19.288 -12.461  1.00  0.00    -0.364 N 
HETATM   19  H   LIG     1     -19.266 -19.030 -11.479  1.00  0.00     0.162 HD
BRANCH  18  20
HETATM   20  C   LIG     1     -19.023 -18.225 -13.403  1.00  0.00     0.150 C 
BRANCH  20  21
HETATM   21  C   LIG     1     -20.158 -17.220 -13.413  1.00  0.00     0.254 C 
BRANCH  21  22
HETATM   22  N   LIG     1     -19.622 -15.850 -13.713  1.00  0.00    -0.066 N 
HETATM   23  C   LIG     1     -18.347 -15.561 -12.956  1.00  0.00     0.261 C 
HETATM   24  C   LIG     1     -17.852 -14.183 -13.361  1.00  0.00     0.195 C 
HETATM   25  O   LIG     1     -18.846 -13.194 -13.086  1.00  0.00    -0.388 OA
HETATM   26  C   LIG     1     -20.036 -13.432 -13.840  1.00  0.00     0.195 C 
HETATM   27  C   LIG     1     -20.649 -14.769 -13.462  1.00  0.00     0.261 C 
HETATM   28  H   LIG     1     -19.399 -15.828 -14.717  1.00  0.00     0.280 HD
ENDBRANCH  21  22
ENDBRANCH  20  21
ENDBRANCH  18  20
ENDBRANCH  16  18
ENDBRANCH   1  16
TORSDOF 9
ENDMDL
MODEL 2
REMARK VINA RESULT:      -7.6      2.161      2.325
REMARK  9 active torsions:
REMARK  status: ('A' for Active; 'I' for Inactive)
REMARK    1  A    between atoms: O_4  and  C_22 
REMARK    2  A    between atoms: O_5  and  C_21 
REMARK    3  A    between atoms: N_6  and  C_12 
REMARK    4  A    between atoms: N_7  and  C_15 
REMARK    5  A    between atoms: N_7  and  C_16 
REMARK    6  A    between atoms: N_8  and  N_9 
REMARK    7  A    between atoms: N_8  and  C_16 
REMARK    8  A    between atoms: C_12  and  C_15 
REMARK    9  A    between atoms: C_17  and  C_18 
ROOT
HETATM    1  N   LIG     1     -19.781 -20.811 -14.223  1.00  0.00    -0.254 N 
HETATM    2  H   LIG     1     -19.255 -20.379 -14.976  1.00  0.00     0.191 HD
ENDROOT
BRANCH   1   3
HETATM    3  N   LIG     1     -20.827 -21.608 -14.549  1.00  0.00    -0.184 NA
HETATM    4  C   LIG     1     -21.944 -20.974 -14.698  1.00  0.00     0.151 C 
BRANCH   4   5
HETATM    5  C   LIG     1     -23.193 -21.670 -15.053  1.00  0.00     0.003 A 
HETATM    6  C   LIG     1     -23.179 -23.057 -15.020  1.00  0.00     0.053 A 
HETATM    7  C   LIG     1     -24.337 -23.761 -15.348  1.00  0.00     0.099 A 
HETATM    8  C   LIG     1     -25.496 -23.072 -15.705  1.00  0.00     0.102 A 
HETATM    9  C   LIG     1     -25.497 -21.677 -15.735  1.00  0.00     0.059 A 
HETATM   10  C   LIG     1     -24.339 -20.973 -15.407  1.00  0.00     0.025 A 
HETATM   11 BR   LIG     1     -24.393 -19.076 -15.462  1.00  0.00    -0.050 Br
BRANCH   7  12
HETATM   12  O   LIG     1     -24.324 -25.124 -15.315  1.00  0.00    -0.358 OA
HETATM   13  H   LIG     1     -23.635 -25.411 -14.691  1.00  0.00     0.217 HD
ENDBRANCH   7  12
BRANCH   8  14
HETATM   14  O   LIG     1     -26.634 -23.749 -16.027  1.00  0.00    -0.353 OA
HETATM   15  C   LIG     1     -26.796 -24.133 -17.390  1.00  0.00     0.210 C 
ENDBRANCH   8  14
ENDBRANCH   4   5
ENDBRANCH   1   3
BRANCH   1  16
HETATM   16  C   LIG     1     -19.435 -20.591 -12.904  1.00  0.00     0.188 C 
HETATM   17  S   LIG     1     -19.355 -21.893 -11.847  1.00  0.00    -0.040 SA
BRANCH  16  18
HETATM   18  N   LIG     1     -19.178 -19.265 -12.566  1.00  0.00    -0.364 N 
HETATM   19  H   LIG     1     -19.082 -18.612 -13.338  1.00  0.00     0.162 HD
BRANCH  18  20
HETATM   20  C   LIG     1     -19.044 -18.723 -11.242  1.00  0.00     0.150 C 
BRANCH  20  21
HETATM   21  C   LIG     1     -18.430 -17.336 -11.247  1.00  0.00     0.254 C 
BRANCH  21  22
HETATM   22  N   LIG     1     -19.303 -16.390 -10.475  1.00  0.00    -0.066 N 
HETATM   23  C   LIG     1     -19.576 -16.884  -9.074  1.00  0.00     0.261 C 
HETATM   24  C   LIG     1     -20.418 -15.843  -8.355  1.00  0.00     0.195 C 
HETATM   25  O   LIG     1     -21.637 -15.610  -9.062  1.00  0.00    -0.388 OA
HETATM   26  C   LIG     1     -21.385 -15.092 -10.369  1.00  0.00     0.195 C 
HETATM   27  C   LIG     1     -20.597 -16.091 -11.197  1.00  0.00     0.261 C 
HETATM   28  H   LIG     1     -18.788 -15.503 -10.396  1.00  0.00     0.280 HD
ENDBRANCH  21  22
ENDBRANCH  20  21
ENDBRANCH  18  20
ENDBRANCH  16  18
ENDBRANCH   1  16
TORSDOF 9
ENDMDL
MODEL 3
REMARK VINA RESULT:      -7.5      4.070      7.685
REMARK  9 active torsions:
REMARK  status: ('A' for Active; 'I' for Inactive)
REMARK    1  A    between atoms: O_4  and  C_22 
REMARK    2  A    between atoms: O_5  and  C_21 
REMARK    3  A    between atoms: N_6  and  C_12 
REMARK    4  A    between atoms: N_7  and  C_15 
REMARK    5  A    between atoms: N_7  and  C_16 
REMARK    6  A    between atoms: N_8  and  N_9 
REMARK    7  A    between atoms: N_8  and  C_16 
REMARK    8  A    between atoms: C_12  and  C_15 
REMARK    9  A    between atoms: C_17  and  C_18 
ROOT
HETATM    1  N   LIG     1     -20.354 -16.187 -14.860  1.00  0.00    -0.254 N 
HETATM    2  H   LIG     1     -19.962 -16.672 -15.660  1.00  0.00     0.191 HD
ENDROOT
BRANCH   1   3
HETATM    3  N   LIG     1     -20.379 -16.831 -13.669  1.00  0.00    -0.184 NA
HETATM    4  C   LIG     1     -19.289 -17.470 -13.394  1.00  0.00     0.151 C 
BRANCH   4   5
HETATM    5  C   LIG     1     -19.126 -18.231 -12.143  1.00  0.00     0.003 A 
HETATM    6  C   LIG     1     -18.804 -17.513 -11.000  1.00  0.00     0.053 A 
HETATM    7  C   LIG     1     -18.640 -18.188  -9.791  1.00  0.00     0.099 A 
HETATM    8  C   LIG     1     -18.799 -19.572  -9.737  1.00  0.00     0.102 A 
HETATM    9  C   LIG     1     -19.123 -20.283 -10.894  1.00  0.00     0.059 A 
HETATM   10  C   LIG     1     -19.287 -19.608 -12.103  1.00  0.00     0.025 A 
HETATM   11 BR   LIG     1     -19.727 -20.620 -13.647  1.00  0.00    -0.050 Br
BRANCH   7  12
HETATM   12  O   LIG     1     -18.325 -17.483  -8.668  1.00  0.00    -0.358 OA
HETATM   13  H   LIG     1     -17.720 -16.762  -8.915  1.00  0.00     0.217 HD
ENDBRANCH   7  12
BRANCH   8  14
HETATM   14  O   LIG     1     -18.642 -20.243  -8.562  1.00  0.00    -0.353 OA
HETATM   15  C   LIG     1     -19.772 -20.307  -7.696  1.00  0.00     0.210 C 
ENDBRANCH   8  14
ENDBRANCH   4   5
ENDBRANCH   1   3
BRANCH   1  16
HETATM   16  C   LIG     1     -20.846 -14.902 -14.987  1.00  0.00     0.188 C 
HETATM   17  S   LIG     1     -19.968 -13.619 -14.352  1.00  0.00    -0.040 SA
BRANCH  16  18
HETATM   18  N   LIG     1     -22.064 -14.791 -15.651  1.00  0.00    -0.364 N 
HETATM   19  H   LIG     1     -22.023 -14.703 -16.662  1.00  0.00     0.162 HD
BRANCH  18  20
HETATM   20  C   LIG     1     -23.373 -14.794 -15.056  1.00  0.00     0.150 C 
BRANCH  20  21
HETATM   21  C   LIG     1     -24.282 -15.842 -15.671  1.00  0.00     0.254 C 
BRANCH  21  22
HETATM   22  N   LIG     1     -24.118 -17.146 -14.946  1.00  0.00    -0.066 N 
HETATM   23  C   LIG     1     -23.404 -18.177 -15.787  1.00  0.00     0.261 C 
HETATM   24  C   LIG     1     -23.237 -19.439 -14.957  1.00  0.00     0.195 C 
HETATM   25  O   LIG     1     -24.508 -19.924 -14.522  1.00  0.00    -0.388 OA
HETATM   26  C   LIG     1     -25.165 -18.974 -13.683  1.00  0.00     0.195 C 
HETATM   27  C   LIG     1     -25.437 -17.687 -14.443  1.00  0.00     0.261 C 
HETATM   28  H   LIG     1     -23.533 -16.959 -14.121  1.00  0.00     0.280 HD
ENDBRANCH  21  22
ENDBRANCH  20  21
ENDBRANCH  18  20
ENDBRANCH  16  18
ENDBRANCH   1  16
TORSDOF 9
ENDMDL
MODEL 4
REMARK VINA RESULT:      -7.4      5.976      7.283
REMARK  9 active torsions:
REMARK  status: ('A' for Active; 'I' for Inactive)
REMARK    1  A    between atoms: O_4  and  C_22 
REMARK    2  A    between atoms: O_5  and  C_21 
REMARK    3  A    between atoms: N_6  and  C_12 
REMARK    4  A    between atoms: N_7  and  C_15 
REMARK    5  A    between atoms: N_7  and  C_16 
REMARK    6  A    between atoms: N_8  and  N_9 
REMARK    7  A    between atoms: N_8  and  C_16 
REMARK    8  A    between atoms: C_12  and  C_15 
REMARK    9  A    between atoms: C_17  and  C_18 
ROOT
HETATM    1  N   LIG     1     -20.663 -16.204 -14.992  1.00  0.00    -0.254 N 
HETATM    2  H   LIG     1     -20.278 -16.698 -15.790  1.00  0.00     0.191 HD
ENDROOT
BRANCH   1   3
HETATM    3  N   LIG     1     -20.629 -16.816 -13.783  1.00  0.00    -0.184 NA
HETATM    4  C   LIG     1     -19.461 -17.259 -13.451  1.00  0.00     0.151 C 
BRANCH   4   5
HETATM    5  C   LIG     1     -19.226 -17.953 -12.173  1.00  0.00     0.003 A 
HETATM    6  C   LIG     1     -18.948 -17.166 -11.065  1.00  0.00     0.053 A 
HETATM    7  C   LIG     1     -18.718 -17.777  -9.832  1.00  0.00     0.099 A 
HETATM    8  C   LIG     1     -18.769 -19.166  -9.721  1.00  0.00     0.102 A 
HETATM    9  C   LIG     1     -19.051 -19.946 -10.843  1.00  0.00     0.059 A 
HETATM   10  C   LIG     1     -19.280 -19.336 -12.075  1.00  0.00     0.025 A 
HETATM   11 BR   LIG     1     -19.659 -20.442 -13.571  1.00  0.00    -0.050 Br
BRANCH   7  12
HETATM   12  O   LIG     1     -18.445 -17.004  -8.743  1.00  0.00    -0.358 OA
HETATM   13  H   LIG     1     -17.847 -17.499  -8.156  1.00  0.00     0.217 HD
ENDBRANCH   7  12
BRANCH   8  14
HETATM   14  O   LIG     1     -18.547 -19.774  -8.521  1.00  0.00    -0.353 OA
HETATM   15  C   LIG     1     -19.694 -20.175  -7.776  1.00  0.00     0.210 C 
ENDBRANCH   8  14
ENDBRANCH   4   5
ENDBRANCH   1   3
BRANCH   1  16
HETATM   16  C   LIG     1     -21.204 -14.941 -15.138  1.00  0.00     0.188 C 
HETATM   17  S   LIG     1     -22.797 -14.784 -15.647  1.00  0.00    -0.040 SA
BRANCH  16  18
HETATM   18  N   LIG     1     -20.347 -13.885 -14.841  1.00  0.00    -0.364 N 
HETATM   19  H   LIG     1     -19.936 -13.399 -15.632  1.00  0.00     0.162 HD
BRANCH  18  20
HETATM   20  C   LIG     1     -19.990 -13.407 -13.533  1.00  0.00     0.150 C 
BRANCH  20  21
HETATM   21  C   LIG     1     -21.202 -12.991 -12.722  1.00  0.00     0.254 C 
BRANCH  21  22
HETATM   22  N   LIG     1     -21.155 -13.638 -11.368  1.00  0.00    -0.066 N 
HETATM   23  C   LIG     1     -22.145 -14.771 -11.245  1.00  0.00     0.261 C 
HETATM   24  C   LIG     1     -21.989 -15.396  -9.869  1.00  0.00     0.195 C 
HETATM   25  O   LIG     1     -22.199 -14.419  -8.848  1.00  0.00    -0.388 OA
HETATM   26  C   LIG     1     -21.231 -13.372  -8.927  1.00  0.00     0.195 C 
HETATM   27  C   LIG     1     -21.346 -12.637 -10.251  1.00  0.00     0.261 C 
HETATM   28  H   LIG     1     -20.212 -14.036 -11.259  1.00  0.00     0.280 HD
ENDBRANCH  21  22
ENDBRANCH  20  21
ENDBRANCH  18  20
ENDBRANCH  16  18
ENDBRANCH   1  16
TORSDOF 9
ENDMDL
MODEL 5
REMARK VINA RESULT:      -7.3      5.482      6.934
REMARK  9 active torsions:
REMARK  status: ('A' for Active; 'I' for Inactive)
REMARK    1  A    between atoms: O_4  and  C_22 
REMARK    2  A    between atoms: O_5  and  C_21 
REMARK    3  A    between atoms: N_6  and  C_12 
REMARK    4  A    between atoms: N_7  and  C_15 
REMARK    5  A    between atoms: N_7  and  C_16 
REMARK    6  A    between atoms: N_8  and  N_9 
REMARK    7  A    between atoms: N_8  and  C_16 
REMARK    8  A    between atoms: C_12  and  C_15 
REMARK    9  A    between atoms: C_17  and  C_18 
ROOT
HETATM    1  N   LIG     1     -18.119 -14.357 -13.042  1.00  0.00    -0.254 N 
HETATM    2  H   LIG     1     -17.239 -13.992 -12.695  1.00  0.00     0.191 HD
ENDROOT
BRANCH   1   3
HETATM    3  N   LIG     1     -18.253 -15.700 -13.160  1.00  0.00    -0.184 NA
HETATM    4  C   LIG     1     -18.704 -16.279 -12.096  1.00  0.00     0.151 C 
BRANCH   4   5
HETATM    5  C   LIG     1     -18.917 -17.736 -12.033  1.00  0.00     0.003 A 
HETATM    6  C   LIG     1     -19.138 -18.398 -13.232  1.00  0.00     0.053 A 
HETATM    7  C   LIG     1     -19.345 -19.777 -13.225  1.00  0.00     0.099 A 
HETATM    8  C   LIG     1     -19.328 -20.479 -12.019  1.00  0.00     0.102 A 
HETATM    9  C   LIG     1     -19.105 -19.801 -10.820  1.00  0.00     0.059 A 
HETATM   10  C   LIG     1     -18.898 -18.422 -10.828  1.00  0.00     0.025 A 
HETATM   11 BR   LIG     1     -18.598 -17.548  -9.170  1.00  0.00    -0.050 Br
BRANCH   7  12
HETATM   12  O   LIG     1     -19.562 -20.428 -14.402  1.00  0.00    -0.358 OA
HETATM   13  H   LIG     1     -20.201 -21.145 -14.245  1.00  0.00     0.217 HD
ENDBRANCH   7  12
BRANCH   8  14
HETATM   14  O   LIG     1     -19.528 -21.827 -11.999  1.00  0.00    -0.353 OA
HETATM   15  C   LIG     1     -18.784 -22.578 -11.044  1.00  0.00     0.210 C 
ENDBRANCH   8  14
ENDBRANCH   4   5
ENDBRANCH   1   3
BRANCH   1  16
HETATM   16  C   LIG     1     -19.152 -13.504 -13.382  1.00  0.00     0.188 C 
HETATM   17  S   LIG     1     -19.926 -12.629 -12.176  1.00  0.00    -0.040 SA
BRANCH  16  18
HETATM   18  N   LIG     1     -19.462 -13.452 -14.738  1.00  0.00    -0.364 N 
HETATM   19  H   LIG     1     -18.692 -13.255 -15.371  1.00  0.00     0.162 HD
BRANCH  18  20
HETATM   20  C   LIG     1     -20.754 -13.654 -15.336  1.00  0.00     0.150 C 
BRANCH  20  21
HETATM   21  C   LIG     1     -21.487 -14.837 -14.733  1.00  0.00     0.254 C 
BRANCH  21  22
HETATM   22  N   LIG     1     -22.966 -14.678 -14.940  1.00  0.00    -0.066 N 
HETATM   23  C   LIG     1     -23.590 -15.912 -15.546  1.00  0.00     0.261 C 
HETATM   24  C   LIG     1     -25.087 -15.680 -15.667  1.00  0.00     0.195 C 
HETATM   25  O   LIG     1     -25.352 -14.526 -16.467  1.00  0.00    -0.388 OA
HETATM   26  C   LIG     1     -24.809 -13.348 -15.870  1.00  0.00     0.195 C 
HETATM   27  C   LIG     1     -23.298 -13.453 -15.760  1.00  0.00     0.261 C 
HETATM   28  H   LIG     1     -23.385 -14.543 -14.010  1.00  0.00     0.280 HD
ENDBRANCH  21  22
ENDBRANCH  20  21
ENDBRANCH  18  20
ENDBRANCH  16  18
ENDBRANCH   1  16
TORSDOF 9
ENDMDL
MODEL 6
REMARK VINA RESULT:      -7.2      6.608      7.856
REMARK  9 active torsions:
REMARK  status: ('A' for Active; 'I' for Inactive)
REMARK    1  A    between atoms: O_4  and  C_22 
REMARK    2  A    between atoms: O_5  and  C_21 
REMARK    3  A    between atoms: N_6  and  C_12 
REMARK    4  A    between atoms: N_7  and  C_15 
REMARK    5  A    between atoms: N_7  and  C_16 
REMARK    6  A    between atoms: N_8  and  N_9 
REMARK    7  A    between atoms: N_8  and  C_16 
REMARK    8  A    between atoms: C_12  and  C_15 
REMARK    9  A    between atoms: C_17  and  C_18 
ROOT
HETATM    1  N   LIG     1     -18.329 -16.155 -11.875  1.00  0.00    -0.254 N 
HETATM    2  H   LIG     1     -17.514 -15.604 -11.628  1.00  0.00     0.191 HD
ENDROOT
BRANCH   1   3
HETATM    3  N   LIG     1     -19.150 -15.687 -12.846  1.00  0.00    -0.184 NA
HETATM    4  C   LIG     1     -20.052 -14.864 -12.420  1.00  0.00     0.151 C 
BRANCH   4   5
HETATM    5  C   LIG     1     -21.036 -14.249 -13.327  1.00  0.00     0.003 A 
HETATM    6  C   LIG     1     -20.924 -14.543 -14.679  1.00  0.00     0.053 A 
HETATM    7  C   LIG     1     -21.832 -13.985 -15.578  1.00  0.00     0.099 A 
HETATM    8  C   LIG     1     -22.841 -13.139 -15.117  1.00  0.00     0.102 A 
HETATM    9  C   LIG     1     -22.942 -12.852 -13.756  1.00  0.00     0.059 A 
HETATM   10  C   LIG     1     -22.034 -13.410 -12.857  1.00  0.00     0.025 A 
HETATM   11 BR   LIG     1     -22.216 -12.987 -11.015  1.00  0.00    -0.050 Br
BRANCH   7  12
HETATM   12  O   LIG     1     -21.723 -14.273 -16.906  1.00  0.00    -0.358 OA
HETATM   13  H   LIG     1     -22.340 -13.703 -17.397  1.00  0.00     0.217 HD
ENDBRANCH   7  12
BRANCH   8  14
HETATM   14  O   LIG     1     -23.734 -12.588 -15.986  1.00  0.00    -0.353 OA
HETATM   15  C   LIG     1     -25.050 -13.136 -15.997  1.00  0.00     0.210 C 
ENDBRANCH   8  14
ENDBRANCH   4   5
ENDBRANCH   1   3
BRANCH   1  16
HETATM   16  C   LIG     1     -18.590 -17.352 -11.235  1.00  0.00     0.188 C 
HETATM   17  S   LIG     1     -19.028 -18.692 -12.148  1.00  0.00    -0.040 SA
BRANCH  16  18
HETATM   18  N   LIG     1     -18.461 -17.330  -9.850  1.00  0.00    -0.364 N 
HETATM   19  H   LIG     1     -17.594 -17.697  -9.470  1.00  0.00     0.162 HD
BRANCH  18  20
HETATM   20  C   LIG     1     -19.424 -16.838  -8.902  1.00  0.00     0.150 C 
BRANCH  20  21
HETATM   21  C   LIG     1     -20.585 -17.794  -8.712  1.00  0.00     0.254 C 
BRANCH  21  22
HETATM   22  N   LIG     1     -21.742 -17.072  -8.084  1.00  0.00    -0.066 N 
HETATM   23  C   LIG     1     -22.451 -17.920  -7.055  1.00  0.00     0.261 C 
HETATM   24  C   LIG     1     -23.566 -17.093  -6.438  1.00  0.00     0.195 C 
HETATM   25  O   LIG     1     -24.474 -16.646  -7.447  1.00  0.00    -0.388 OA
HETATM   26  C   LIG     1     -23.819 -15.799  -8.393  1.00  0.00     0.195 C 
HETATM   27  C   LIG     1     -22.718 -16.555  -9.115  1.00  0.00     0.261 C 
HETATM   28  H   LIG     1     -21.355 -16.252  -7.596  1.00  0.00     0.280 HD
ENDBRANCH  21  22
ENDBRANCH  20  21
ENDBRANCH  18  20
ENDBRANCH  16  18
ENDBRANCH   1  16
TORSDOF 9
ENDMDL
MODEL 7
REMARK VINA RESULT:      -7.2      4.892      7.895
REMARK  9 active torsions:
REMARK  status: ('A' for Active; 'I' for Inactive)
REMARK    1  A    between atoms: O_4  and  C_22 
REMARK    2  A    between atoms: O_5  and  C_21 
REMARK    3  A    between atoms: N_6  and  C_12 
REMARK    4  A    between atoms: N_7  and  C_15 
REMARK    5  A    between atoms: N_7  and  C_16 
REMARK    6  A    between atoms: N_8  and  N_9 
REMARK    7  A    between atoms: N_8  and  C_16 
REMARK    8  A    between atoms: C_12  and  C_15 
REMARK    9  A    between atoms: C_17  and  C_18 
ROOT
HETATM    1  N   LIG     1     -20.472 -16.607  -9.116  1.00  0.00    -0.254 N 
HETATM    2  H   LIG     1     -19.652 -16.097  -8.805  1.00  0.00     0.191 HD
ENDROOT
BRANCH   1   3
HETATM    3  N   LIG     1     -21.041 -16.248 -10.292  1.00  0.00    -0.184 NA
HETATM    4  C   LIG     1     -20.927 -14.990 -10.568  1.00  0.00     0.151 C 
BRANCH   4   5
HETATM    5  C   LIG     1     -21.482 -14.410 -11.804  1.00  0.00     0.003 A 
HETATM    6  C   LIG     1     -21.069 -14.965 -13.007  1.00  0.00     0.053 A 
HETATM    7  C   LIG     1     -21.566 -14.451 -14.204  1.00  0.00     0.099 A 
HETATM    8  C   LIG     1     -22.470 -13.389 -14.186  1.00  0.00     0.102 A 
HETATM    9  C   LIG     1     -22.877 -12.840 -12.969  1.00  0.00     0.059 A 
HETATM   10  C   LIG     1     -22.380 -13.354 -11.772  1.00  0.00     0.025 A 
HETATM   11 BR   LIG     1     -22.966 -12.572 -10.145  1.00  0.00    -0.050 Br
BRANCH   7  12
HETATM   12  O   LIG     1     -21.161 -14.996 -15.386  1.00  0.00    -0.358 OA
HETATM   13  H   LIG     1     -20.261 -14.681 -15.579  1.00  0.00     0.217 HD
ENDBRANCH   7  12
BRANCH   8  14
HETATM   14  O   LIG     1     -22.963 -12.879 -15.349  1.00  0.00    -0.353 OA
HETATM   15  C   LIG     1     -24.369 -12.987 -15.560  1.00  0.00     0.210 C 
ENDBRANCH   8  14
ENDBRANCH   4   5
ENDBRANCH   1   3
BRANCH   1  16
HETATM   16  C   LIG     1     -20.989 -17.641  -8.359  1.00  0.00     0.188 C 
HETATM   17  S   LIG     1     -22.337 -17.360  -7.398  1.00  0.00    -0.040 SA
BRANCH  16  18
HETATM   18  N   LIG     1     -20.319 -18.856  -8.469  1.00  0.00    -0.364 N 
HETATM   19  H   LIG     1     -20.784 -19.667  -8.073  1.00  0.00     0.162 HD
BRANCH  18  20
HETATM   20  C   LIG     1     -19.041 -19.083  -9.088  1.00  0.00     0.150 C 
BRANCH  20  21
HETATM   21  C   LIG     1     -18.864 -20.523  -9.531  1.00  0.00     0.254 C 
BRANCH  21  22
HETATM   22  N   LIG     1     -18.853 -20.597 -11.030  1.00  0.00    -0.066 N 
HETATM   23  C   LIG     1     -19.262 -19.290 -11.667  1.00  0.00     0.261 C 
HETATM   24  C   LIG     1     -19.169 -19.442 -13.175  1.00  0.00     0.195 C 
HETATM   25  O   LIG     1     -20.003 -20.513 -13.622  1.00  0.00    -0.388 OA
HETATM   26  C   LIG     1     -19.586 -21.760 -13.065  1.00  0.00     0.195 C 
HETATM   27  C   LIG     1     -19.701 -21.734 -11.551  1.00  0.00     0.261 C 
HETATM   28  H   LIG     1     -17.882 -20.789 -11.314  1.00  0.00     0.280 HD
ENDBRANCH  21  22
ENDBRANCH  20  21
ENDBRANCH  18  20
ENDBRANCH  16  18
ENDBRANCH   1  16
TORSDOF 9
ENDMDL
MODEL 8
REMARK VINA RESULT:      -7.2      5.842      7.280
REMARK  9 active torsions:
REMARK  status: ('A' for Active; 'I' for Inactive)
REMARK    1  A    between atoms: O_4  and  C_22 
REMARK    2  A    between atoms: O_5  and  C_21 
REMARK    3  A    between atoms: N_6  and  C_12 
REMARK    4  A    between atoms: N_7  and  C_15 
REMARK    5  A    between atoms: N_7  and  C_16 
REMARK    6  A    between atoms: N_8  and  N_9 
REMARK    7  A    between atoms: N_8  and  C_16 
REMARK    8  A    between atoms: C_12  and  C_15 
REMARK    9  A    between atoms: C_17  and  C_18 
ROOT
HETATM    1  N   LIG     1     -20.786 -14.415 -10.110  1.00  0.00    -0.254 N 
HETATM    2  H   LIG     1     -19.989 -13.920 -10.497  1.00  0.00     0.191 HD
ENDROOT
BRANCH   1   3
HETATM    3  N   LIG     1     -20.744 -15.769 -10.077  1.00  0.00    -0.184 NA
HETATM    4  C   LIG     1     -19.626 -16.271 -10.489  1.00  0.00     0.151 C 
BRANCH   4   5
HETATM    5  C   LIG     1     -19.392 -17.725 -10.526  1.00  0.00     0.003 A 
HETATM    6  C   LIG     1     -19.295 -18.384  -9.309  1.00  0.00     0.053 A 
HETATM    7  C   LIG     1     -19.074 -19.761  -9.291  1.00  0.00     0.099 A 
HETATM    8  C   LIG     1     -18.952 -20.463 -10.490  1.00  0.00     0.102 A 
HETATM    9  C   LIG     1     -19.051 -19.789 -11.707  1.00  0.00     0.059 A 
HETATM   10  C   LIG     1     -19.272 -18.412 -11.725  1.00  0.00     0.025 A 
HETATM   11 BR   LIG     1     -19.400 -17.542 -13.407  1.00  0.00    -0.050 Br
BRANCH   7  12
HETATM   12  O   LIG     1     -18.979 -20.409  -8.096  1.00  0.00    -0.358 OA
HETATM   13  H   LIG     1     -18.912 -21.364  -8.267  1.00  0.00     0.217 HD
ENDBRANCH   7  12
BRANCH   8  14
HETATM   14  O   LIG     1     -18.736 -21.809 -10.486  1.00  0.00    -0.353 OA
HETATM   15  C   LIG     1     -19.159 -22.537 -11.636  1.00  0.00     0.210 C 
ENDBRANCH   8  14
ENDBRANCH   4   5
ENDBRANCH   1   3
BRANCH   1  16
HETATM   16  C   LIG     1     -21.881 -13.722  -9.630  1.00  0.00     0.188 C 
HETATM   17  S   LIG     1     -23.098 -14.560  -8.832  1.00  0.00    -0.040 SA
BRANCH  16  18
HETATM   18  N   LIG     1     -21.869 -12.350  -9.863  1.00  0.00    -0.364 N 
HETATM   19  H   LIG     1     -21.743 -11.754  -9.050  1.00  0.00     0.162 HD
BRANCH  18  20
HETATM   20  C   LIG     1     -22.009 -11.690 -11.132  1.00  0.00     0.150 C 
BRANCH  20  21
HETATM   21  C   LIG     1     -23.097 -12.311 -11.987  1.00  0.00     0.254 C 
BRANCH  21  22
HETATM   22  N   LIG     1     -22.598 -12.499 -13.390  1.00  0.00    -0.066 N 
HETATM   23  C   LIG     1     -23.714 -12.833 -14.350  1.00  0.00     0.261 C 
HETATM   24  C   LIG     1     -23.126 -12.951 -15.746  1.00  0.00     0.195 C 
HETATM   25  O   LIG     1     -22.107 -13.952 -15.777  1.00  0.00    -0.388 OA
HETATM   26  C   LIG     1     -21.023 -13.614 -14.910  1.00  0.00     0.195 C 
HETATM   27  C   LIG     1     -21.497 -13.532 -13.470  1.00  0.00     0.261 C 
HETATM   28  H   LIG     1     -22.192 -11.601 -13.686  1.00  0.00     0.280 HD
ENDBRANCH  21  22
ENDBRANCH  20  21
ENDBRANCH  18  20
ENDBRANCH  16  18
ENDBRANCH   1  16
TORSDOF 9
ENDMDL
MODEL 9
REMARK VINA RESULT:      -7.2      6.491      8.228
REMARK  9 active torsions:
REMARK  status: ('A' for Active; 'I' for Inactive)
REMARK    1  A    between atoms: O_4  and  C_22 
REMARK    2  A    between atoms: O_5  and  C_21 
REMARK    3  A    between atoms: N_6  and  C_12 
REMARK    4  A    between atoms: N_7  and  C_15 
REMARK    5  A    between atoms: N_7  and  C_16 
REMARK    6  A    between atoms: N_8  and  N_9 
REMARK    7  A    between atoms: N_8  and  C_16 
REMARK    8  A    between atoms: C_12  and  C_15 
REMARK    9  A    between atoms: C_17  and  C_18 
ROOT
HETATM    1  N   LIG     1     -22.015 -12.444  -9.440  1.00  0.00    -0.254 N 
HETATM    2  H   LIG     1     -22.478 -12.019  -8.643  1.00  0.00     0.191 HD
ENDROOT
BRANCH   1   3
HETATM    3  N   LIG     1     -21.210 -13.511  -9.220  1.00  0.00    -0.184 NA
HETATM    4  C   LIG     1     -21.756 -14.648  -9.501  1.00  0.00     0.151 C 
BRANCH   4   5
HETATM    5  C   LIG     1     -21.036 -15.922  -9.327  1.00  0.00     0.003 A 
HETATM    6  C   LIG     1     -19.853 -16.085 -10.034  1.00  0.00     0.053 A 
HETATM    7  C   LIG     1     -19.136 -17.273  -9.903  1.00  0.00     0.099 A 
HETATM    8  C   LIG     1     -19.607 -18.285  -9.067  1.00  0.00     0.102 A 
HETATM    9  C   LIG     1     -20.798 -18.109  -8.361  1.00  0.00     0.059 A 
HETATM   10  C   LIG     1     -21.516 -16.920  -8.493  1.00  0.00     0.025 A 
HETATM   11 BR   LIG     1     -23.130 -16.730  -7.511  1.00  0.00    -0.050 Br
BRANCH   7  12
HETATM   12  O   LIG     1     -17.974 -17.434 -10.597  1.00  0.00    -0.358 OA
HETATM   13  H   LIG     1     -18.111 -17.117 -11.507  1.00  0.00     0.217 HD
ENDBRANCH   7  12
BRANCH   8  14
HETATM   14  O   LIG     1     -18.914 -19.450  -8.930  1.00  0.00    -0.353 OA
HETATM   15  C   LIG     1     -19.330 -20.333  -7.890  1.00  0.00     0.210 C 
ENDBRANCH   8  14
ENDBRANCH   4   5
ENDBRANCH   1   3
BRANCH   1  16
HETATM   16  C   LIG     1     -22.206 -11.944 -10.714  1.00  0.00     0.188 C 
HETATM   17  S   LIG     1     -23.768 -11.768 -11.303  1.00  0.00    -0.040 SA
BRANCH  16  18
HETATM   18  N   LIG     1     -21.043 -11.625 -11.411  1.00  0.00    -0.364 N 
HETATM   19  H   LIG     1     -20.749 -10.653 -11.380  1.00  0.00     0.162 HD
BRANCH  18  20
HETATM   20  C   LIG     1     -20.214 -12.527 -12.163  1.00  0.00     0.150 C 
BRANCH  20  21
HETATM   21  C   LIG     1     -20.973 -13.204 -13.288  1.00  0.00     0.254 C 
BRANCH  21  22
HETATM   22  N   LIG     1     -20.215 -14.411 -13.759  1.00  0.00    -0.066 N 
HETATM   23  C   LIG     1     -20.932 -15.698 -13.425  1.00  0.00     0.261 C 
HETATM   24  C   LIG     1     -20.122 -16.855 -13.985  1.00  0.00     0.195 C 
HETATM   25  O   LIG     1     -18.800 -16.849 -13.443  1.00  0.00    -0.388 OA
HETATM   26  C   LIG     1     -18.099 -15.658 -13.801  1.00  0.00     0.195 C 
HETATM   27  C   LIG     1     -18.799 -14.435 -13.233  1.00  0.00     0.261 C 
HETATM   28  H   LIG     1     -20.156 -14.346 -14.785  1.00  0.00     0.280 HD
ENDBRANCH  21  22
ENDBRANCH  20  21
ENDBRANCH  18  20
ENDBRANCH  16  18
ENDBRANCH   1  16
TORSDOF 9
ENDMDL
