MODEL 1
REMARK VINA RESULT:     -15.4      0.000      0.000
REMARK  20 active torsions:
REMARK  status: ('A' for Active; 'I' for Inactive)
REMARK    1  A    between atoms: N_3  and  CA_4 
REMARK    2  A    between atoms: CA_4  and  CB_5 
REMARK    3  A    between atoms: CA_4  and  C_6 
REMARK    4  A    between atoms: CA_12  and  C_14 
REMARK       I    between atoms: N_19  and  C_14 
REMARK    5  A    between atoms: N_41  and  C_24 
REMARK       I    between atoms: N_35  and  C_77 
REMARK    6  A    between atoms: C_36  and  CA_37 
REMARK    7  A    between atoms: OH_40  and  CZ_50 
REMARK    8  A    between atoms: N_41  and  CA_42 
REMARK    9  A    between atoms: CA_42  and  CB_43 
REMARK   10  A    between atoms: CA_42  and  C_44 
REMARK   11  A    between atoms: CB_43  and  CG_45 
REMARK   12  A    between atoms: OD1_54  and  CG_60 
REMARK   13  A    between atoms: N_56  and  CA_57 
REMARK   14  A    between atoms: O_63  and  C_70 
REMARK   15  A    between atoms: CA_67  and  C_70 
REMARK   16  A    between atoms: N_74  and  CA_75 
REMARK   17  A    between atoms: CA_75  and  CB_76 
REMARK   18  A    between atoms: CA_75  and  C_77 
REMARK   19  A    between atoms: N_83  and  CA_84 
REMARK   20  A    between atoms: CA_84  and  C_85 
ROOT
ATOM      1  CA  TYR A   5     -20.685 -12.449  -7.539  1.00  0.00     0.263 C 
ENDROOT
BRANCH   1   2
ATOM      2  N   TYR A   5     -20.870 -11.676  -8.146  1.00  0.00    -0.371 N 
ATOM      3  H   TYR A   5     -20.984 -11.197  -8.522  1.00  0.00     0.161 HD
BRANCH   2   4
ATOM      4  C   TRP A   4     -21.414 -14.901 -14.714  1.00  0.00     0.087 A 
ATOM      5  O   TRP A   4     -21.261 -15.149 -15.671  1.00  0.00    -0.297 OA
ATOM      6  CA  TRP A   4     -22.126 -15.365 -14.185  1.00  0.00     0.130 A 
ATOM      7  N   TRP A   4     -22.685 -16.075 -14.613  1.00  0.00    -0.348 N 
ATOM      8  CB  TRP A   4     -22.279 -15.117 -13.229  1.00  0.00     0.084 A 
ATOM      9  H   TRP A   4     -22.243 -15.788 -14.941  1.00  0.00     0.191 HD
ATOM     10  C   VAL A   3     -23.495 -16.629 -14.076  1.00  0.00     0.244 C 
ATOM     11  O   VAL A   3     -23.647 -16.381 -13.120  1.00  0.00    -0.272 OA
ATOM     12  CG  TRP A   4     -21.719 -14.406 -12.801  1.00  0.00     0.006 A 
ATOM     13  CD2 TRP A   4     -20.992 -13.892 -13.241  1.00  0.00     0.032 A 
ATOM     14  CD1 TRP A   4     -21.795 -14.091 -11.861  1.00  0.00     0.106 A 
ATOM     15  CE2 TRP A   4     -20.616 -13.255 -12.568  1.00  0.00     0.054 A 
ATOM     16  CE3 TRP A   4     -20.619 -13.917 -14.169  1.00  0.00     0.238 A 
ATOM     17  CZ3 TRP A   4     -19.870 -13.306 -14.423  1.00  0.00    -0.012 A 
ATOM     18  CH2 TRP A   4     -19.494 -12.669 -13.751  1.00  0.00    -0.005 A 
ATOM     19  CZ2 TRP A   4     -19.867 -12.643 -12.823  1.00  0.00     0.004 A 
ATOM     20  NE1 TRP A   4     -21.115 -13.381 -11.717  1.00  0.00    -0.403 N 
ATOM     21  HE1 TRP A   4     -21.017 -13.071 -11.190  1.00  0.00     0.154 HD
BRANCH  10  22
ATOM     22  CA  VAL A   3     -24.053 -17.339 -14.504  1.00  0.00     0.571 A 
ATOM     23  N   VAL A   3     -23.766 -18.295 -14.458  1.00  0.00    -0.105 N 
ATOM     24  C   GLY A   2     -24.346 -19.135 -14.915  1.00  0.00     0.146 A 
ATOM     25  H   VAL A   3     -23.420 -17.856 -14.193  1.00  0.00     0.261 HD
ATOM     26  O   GLY A   2     -25.192 -18.888 -15.389  1.00  0.00     0.000 OA
ATOM     27  CG2 VAL A   3     -25.457 -17.802 -15.406  1.00  0.00     0.037 A 
ATOM     28  CB  VAL A   3     -24.899 -17.093 -14.978  1.00  0.00     0.078 A 
ATOM     29  CG1 VAL A   3     -25.185 -16.136 -15.024  1.00  0.00     0.007 C 
BRANCH  24  30
ATOM     30  CA  GLY A   2     -24.060 -20.093 -14.869  1.00  0.00     0.704 A 
ATOM     31  N   GLY A   2     -24.440 -20.760 -15.509  1.00  0.00    -0.059 N 
ATOM     32  C   VAL A   1     -24.161 -21.842 -15.509  1.00  0.00     0.333 C 
ATOM     33  H   GLY A   2     -24.618 -20.167 -15.538  1.00  0.00     0.293 HD
ATOM     34  O   VAL A   1     -23.494 -22.132 -14.822  1.00  0.00    -0.265 OA
BRANCH  32  35
ATOM     35  CA  VAL A   1     -24.541 -22.510 -16.149  1.00  0.00     0.334 C 
BRANCH  35  36
ATOM     36  N   VAL A   1     -24.543 -22.317 -17.130  1.00  0.00     0.091 NA
ATOM     37  H1  VAL A   1     -24.085 -22.530 -17.489  1.00  0.00     0.313 HD
ATOM     38  H2  VAL A   1     -24.542 -22.437 -16.522  1.00  0.00     0.295 HD
ENDBRANCH  35  36
BRANCH  35  39
ATOM     39  CB  VAL A   1     -24.920 -23.370 -15.808  1.00  0.00     0.003 C 
ATOM     40  CG1 VAL A   1     -25.906 -23.462 -15.668  1.00  0.00     0.038 C 
ATOM     41  CG2 VAL A   1     -24.313 -24.139 -15.606  1.00  0.00     0.007 C 
ENDBRANCH  35  39
ENDBRANCH  32  35
ENDBRANCH  24  30
ENDBRANCH  10  22
ENDBRANCH   2   4
ENDBRANCH   1   2
BRANCH   1  42
ATOM     42  CB  TYR A   5     -20.177 -12.308  -6.690  1.00  0.00     0.152 C 
BRANCH  42  43
ATOM     43  CG  TYR A   5     -20.383 -11.520  -6.109  1.00  0.00    -0.014 A 
ATOM     44  CD1 TYR A   5     -19.713 -10.784  -6.009  1.00  0.00    -0.015 A 
ATOM     45  CE1 TYR A   5     -19.919  -9.996  -5.428  1.00  0.00     0.033 A 
ATOM     46  CZ  TYR A   5     -20.795  -9.945  -4.947  1.00  0.00     0.065 A 
ATOM     47  CE2 TYR A   5     -21.464 -10.681  -5.047  1.00  0.00     0.033 A 
ATOM     48  CD2 TYR A   5     -21.258 -11.469  -5.628  1.00  0.00    -0.015 A 
BRANCH  46  49
ATOM     49  OH  TYR A   5     -21.001  -9.158  -4.366  1.00  0.00    -0.361 OA
ATOM     50  HH  TYR A   5     -20.544  -8.780  -4.182  1.00  0.00     0.217 HD
ENDBRANCH  46  49
ENDBRANCH  42  43
ENDBRANCH   1  42
BRANCH   1  51
ATOM     51  C   TYR A   5     -21.010 -13.364  -7.781  1.00  0.00     0.162 A 
ATOM     52  O   TYR A   5     -21.991 -13.545  -7.848  1.00  0.00    -0.293 OA
ATOM     53  N   GLY A   6     -20.327 -14.224  -7.989  1.00  0.00    -0.068 N 
ATOM     54  H   GLY A   6     -20.126 -13.657  -7.838  1.00  0.00     0.346 HD
BRANCH  53  55
ATOM     55  CA  GLY A   6     -20.651 -15.139  -8.231  1.00  0.00     0.841 C 
BRANCH  55  56
ATOM     56  C   GLY A   6     -20.057 -15.760  -8.742  1.00  0.00     0.173 A 
ATOM     57  O   GLY A   6     -19.268 -16.180  -8.293  1.00  0.00    -0.293 OA
ATOM     58  N   MET A   7     -20.222 -16.027  -9.815  1.00  0.00    -0.069 N 
ATOM     59  H   MET A   7     -20.590 -15.641  -9.498  1.00  0.00     0.346 HD
BRANCH  58  60
ATOM     60  CA  MET A   7     -19.629 -16.648 -10.326  1.00  0.00     0.591 C 
BRANCH  60  61
ATOM     61  CB  MET A   7     -18.951 -16.281 -10.963  1.00  0.00     0.165 A 
ATOM     62  CG  MET A   7     -18.998 -16.518 -11.934  1.00  0.00     0.085 A 
ATOM     63  SD  MET A   7     -18.320 -16.151 -12.571  1.00  0.00    -0.324 SA
ATOM     64  CE  MET A   7     -18.367 -16.387 -13.542  1.00  0.00     0.189 C 
ENDBRANCH  60  61
BRANCH  60  65
ATOM     65  C   MET A   7     -19.713 -17.637 -10.200  1.00  0.00     0.259 A 
ATOM     66  O   MET A   7     -20.616 -18.051 -10.089  1.00  0.00    -0.277 OA
ATOM     67  N   ASP A   8     -18.838 -18.331 -10.174  1.00  0.00    -0.064 N 
ATOM     68  H   ASP A   8     -18.785 -17.718 -10.252  1.00  0.00     0.363 HD
BRANCH  67  69
ATOM     69  CA  ASP A   8     -18.922 -19.320 -10.048  1.00  0.00     0.521 A 
ATOM     70  C   ASP A   8     -19.060 -19.915 -10.840  1.00  0.00    -0.014 A 
ATOM     71  O   ASP A   8     -19.114 -19.521 -11.757  1.00  0.00     0.000 OA
ATOM     72  N   VAL A   9     -19.162 -21.026 -10.765  1.00  0.00     0.000 N 
ATOM     73  CG2 VAL A   9     -19.270 -20.239 -12.601  1.00  0.00     0.044 A 
ATOM     74  CB  VAL A   9     -19.354 -21.227 -12.475  1.00  0.00     0.015 A 
ATOM     75  CA  VAL A   9     -19.300 -21.621 -11.557  1.00  0.00     0.066 A 
ATOM     76  CG1 VAL A   9     -19.493 -21.822 -13.266  1.00  0.00     0.034 C 
ATOM     77  H   VAL A   9     -19.076 -20.657 -10.274  1.00  0.00     0.000 HD
ATOM     78  OD2 ASP A   8     -19.091 -21.296  -9.796  1.00  0.00     0.000 OA
ATOM     79  CG  ASP A   8     -18.952 -20.701  -9.004  1.00  0.00     0.067 A 
ATOM     80  CB  ASP A   8     -18.868 -19.713  -9.130  1.00  0.00     0.213 A 
BRANCH  75  81
ATOM     81  C   VAL A   9     -19.385 -22.609 -11.431  1.00  0.00     0.139 C 
ATOM     82  OXT VAL A   9     -20.290 -23.028 -11.357  1.00  0.00    -0.650 OA
BRANCH  81  83
ATOM     83  O   VAL A   9     -18.564 -23.178 -11.378  1.00  0.00    -0.776 OA
ATOM     84  H   VAL A   9     -18.182 -23.126 -10.892  1.00  0.00     0.167 HD
ENDBRANCH  81  83
ENDBRANCH  75  81
BRANCH  79  85
ATOM     85  OD1 ASP A   8     -18.898 -21.095  -8.086  1.00  0.00    -0.392 OA
ATOM     86  HD1 ASP A   8     -18.354 -21.293  -7.865  1.00  0.00     0.210 HD
ENDBRANCH  79  85
ENDBRANCH  67  69
ENDBRANCH  60  65
ENDBRANCH  58  60
ENDBRANCH  55  56
ENDBRANCH  53  55
ENDBRANCH   1  51
TORSDOF 20
ENDMDL
MODEL 2
REMARK VINA RESULT:     -15.3      2.291     10.174
REMARK  20 active torsions:
REMARK  status: ('A' for Active; 'I' for Inactive)
REMARK    1  A    between atoms: N_3  and  CA_4 
REMARK    2  A    between atoms: CA_4  and  CB_5 
REMARK    3  A    between atoms: CA_4  and  C_6 
REMARK    4  A    between atoms: CA_12  and  C_14 
REMARK       I    between atoms: N_19  and  C_14 
REMARK    5  A    between atoms: N_41  and  C_24 
REMARK       I    between atoms: N_35  and  C_77 
REMARK    6  A    between atoms: C_36  and  CA_37 
REMARK    7  A    between atoms: OH_40  and  CZ_50 
REMARK    8  A    between atoms: N_41  and  CA_42 
REMARK    9  A    between atoms: CA_42  and  CB_43 
REMARK   10  A    between atoms: CA_42  and  C_44 
REMARK   11  A    between atoms: CB_43  and  CG_45 
REMARK   12  A    between atoms: OD1_54  and  CG_60 
REMARK   13  A    between atoms: N_56  and  CA_57 
REMARK   14  A    between atoms: O_63  and  C_70 
REMARK   15  A    between atoms: CA_67  and  C_70 
REMARK   16  A    between atoms: N_74  and  CA_75 
REMARK   17  A    between atoms: CA_75  and  CB_76 
REMARK   18  A    between atoms: CA_75  and  C_77 
REMARK   19  A    between atoms: N_83  and  CA_84 
REMARK   20  A    between atoms: CA_84  and  C_85 
ROOT
ATOM      1  CA  TYR A   5     -19.059 -18.413 -11.989  1.00  0.00     0.263 C 
ENDROOT
BRANCH   1   2
ATOM      2  N   TYR A   5     -19.058 -18.514 -10.995  1.00  0.00    -0.371 N 
ATOM      3  H   TYR A   5     -19.058 -18.576 -10.378  1.00  0.00     0.161 HD
BRANCH   2   4
ATOM      4  C   TRP A   4     -22.343 -12.344  -8.762  1.00  0.00     0.087 A 
ATOM      5  O   TRP A   4     -22.950 -11.551  -8.712  1.00  0.00    -0.297 OA
ATOM      6  CA  TRP A   4     -21.660 -12.497  -8.047  1.00  0.00     0.130 A 
ATOM      7  N   TRP A   4     -21.584 -11.858  -7.282  1.00  0.00    -0.348 N 
ATOM      8  CB  TRP A   4     -21.053 -13.290  -8.097  1.00  0.00     0.084 A 
ATOM      9  H   TRP A   4     -22.008 -11.763  -7.726  1.00  0.00     0.191 HD
ATOM     10  C   VAL A   3     -20.843 -11.973  -6.453  1.00  0.00     0.244 C 
ATOM     11  O   VAL A   3     -20.236 -12.767  -6.504  1.00  0.00    -0.272 OA
ATOM     12  CG  TRP A   4     -21.129 -13.930  -8.863  1.00  0.00     0.006 A 
ATOM     13  CD2 TRP A   4     -21.772 -13.864  -9.617  1.00  0.00     0.032 A 
ATOM     14  CD1 TRP A   4     -20.574 -14.744  -9.001  1.00  0.00     0.106 A 
ATOM     15  CE2 TRP A   4     -21.613 -14.641 -10.225  1.00  0.00     0.054 A 
ATOM     16  CE3 TRP A   4     -22.485 -13.197  -9.835  1.00  0.00     0.238 A 
ATOM     17  CZ3 TRP A   4     -23.039 -13.308 -10.660  1.00  0.00    -0.012 A 
ATOM     18  CH2 TRP A   4     -22.880 -14.085 -11.268  1.00  0.00    -0.005 A 
ATOM     19  CZ2 TRP A   4     -22.167 -14.753 -11.051  1.00  0.00     0.004 A 
ATOM     20  NE1 TRP A   4     -20.872 -15.182  -9.841  1.00  0.00    -0.403 N 
ATOM     21  HE1 TRP A   4     -20.638 -15.702 -10.084  1.00  0.00     0.154 HD
BRANCH  10  22
ATOM     22  CA  VAL A   3     -20.767 -11.334  -5.688  1.00  0.00     0.571 A 
ATOM     23  N   VAL A   3     -21.489 -11.292  -4.999  1.00  0.00    -0.105 N 
ATOM     24  C   GLY A   2     -21.463 -10.600  -4.121  1.00  0.00     0.146 A 
ATOM     25  H   VAL A   3     -21.536 -11.689  -5.472  1.00  0.00     0.261 HD
ATOM     26  O   GLY A   2     -20.665 -10.002  -4.047  1.00  0.00     0.000 OA
ATOM     27  CG2 VAL A   3     -19.893 -10.097  -4.850  1.00  0.00     0.037 A 
ATOM     28  CB  VAL A   3     -19.969 -10.736  -5.614  1.00  0.00     0.078 A 
ATOM     29  CG1 VAL A   3     -19.246 -10.778  -6.304  1.00  0.00     0.007 C 
BRANCH  24  30
ATOM     30  CA  GLY A   2     -22.186 -10.558  -3.430  1.00  0.00     0.704 A 
ATOM     31  N   GLY A   2     -22.920  -9.883  -3.514  1.00  0.00    -0.059 N 
ATOM     32  C   VAL A   1     -23.754  -9.786  -2.777  1.00  0.00     0.333 C 
ATOM     33  H   GLY A   2     -22.472  -9.909  -3.942  1.00  0.00     0.293 HD
ATOM     34  O   VAL A   1     -23.742 -10.419  -2.002  1.00  0.00    -0.265 OA
BRANCH  32  35
ATOM     35  CA  VAL A   1     -24.488  -9.112  -2.860  1.00  0.00     0.334 C 
BRANCH  35  36
ATOM     36  N   VAL A   1     -25.142  -9.176  -3.613  1.00  0.00     0.091 NA
ATOM     37  H1  VAL A   1     -25.656  -8.828  -3.608  1.00  0.00     0.313 HD
ATOM     38  H2  VAL A   1     -24.736  -9.136  -3.146  1.00  0.00     0.295 HD
ENDBRANCH  35  36
BRANCH  35  39
ATOM     39  CB  VAL A   1     -24.566  -8.373  -2.191  1.00  0.00     0.003 C 
ATOM     40  CG1 VAL A   1     -25.306  -8.384  -1.518  1.00  0.00     0.038 C 
ATOM     41  CG2 VAL A   1     -23.905  -7.623  -2.194  1.00  0.00     0.007 C 
ENDBRANCH  35  39
ENDBRANCH  32  35
ENDBRANCH  24  30
ENDBRANCH  10  22
ENDBRANCH   2   4
ENDBRANCH   1   2
BRANCH   1  42
ATOM     42  CB  TYR A   5     -19.039 -19.224 -12.574  1.00  0.00     0.152 C 
BRANCH  42  43
ATOM     43  CG  TYR A   5     -19.153 -20.133 -12.173  1.00  0.00    -0.014 A 
ATOM     44  CD1 TYR A   5     -18.994 -20.271 -11.196  1.00  0.00    -0.015 A 
ATOM     45  CE1 TYR A   5     -19.108 -21.180 -10.794  1.00  0.00     0.033 A 
ATOM     46  CZ  TYR A   5     -19.381 -21.950 -11.371  1.00  0.00     0.065 A 
ATOM     47  CE2 TYR A   5     -19.540 -21.812 -12.348  1.00  0.00     0.033 A 
ATOM     48  CD2 TYR A   5     -19.426 -20.903 -12.749  1.00  0.00    -0.015 A 
BRANCH  46  49
ATOM     49  OH  TYR A   5     -19.494 -22.859 -10.969  1.00  0.00    -0.361 OA
ATOM     50  HH  TYR A   5     -20.034 -23.159 -11.029  1.00  0.00     0.217 HD
ENDBRANCH  46  49
ENDBRANCH  42  43
ENDBRANCH   1  42
BRANCH   1  51
ATOM     51  C   TYR A   5     -19.080 -17.501 -12.399  1.00  0.00     0.162 A 
ATOM     52  O   TYR A   5     -18.368 -16.835 -12.175  1.00  0.00    -0.293 OA
ATOM     53  N   GLY A   6     -19.872 -17.165 -13.114  1.00  0.00    -0.068 N 
ATOM     54  H   GLY A   6     -19.859 -17.730 -12.860  1.00  0.00     0.346 HD
BRANCH  53  55
ATOM     55  CA  GLY A   6     -19.893 -16.253 -13.524  1.00  0.00     0.841 C 
BRANCH  55  56
ATOM     56  C   GLY A   6     -20.578 -16.033 -14.219  1.00  0.00     0.173 A 
ATOM     57  O   GLY A   6     -20.348 -16.109 -15.189  1.00  0.00    -0.293 OA
ATOM     58  N   MET A   7     -21.616 -15.697 -13.975  1.00  0.00    -0.069 N 
ATOM     59  H   MET A   7     -21.191 -15.833 -13.544  1.00  0.00     0.346 HD
BRANCH  58  60
ATOM     60  CA  MET A   7     -22.301 -15.476 -14.669  1.00  0.00     0.591 C 
BRANCH  60  61
ATOM     61  CB  MET A   7     -22.368 -14.545 -15.028  1.00  0.00     0.165 A 
ATOM     62  CG  MET A   7     -22.975 -13.883 -14.589  1.00  0.00     0.085 A 
ATOM     63  SD  MET A   7     -23.041 -12.952 -14.948  1.00  0.00    -0.324 SA
ATOM     64  CE  MET A   7     -23.648 -12.289 -14.509  1.00  0.00     0.189 C 
ENDBRANCH  60  61
BRANCH  60  65
ATOM     65  C   MET A   7     -22.919 -16.187 -15.005  1.00  0.00     0.259 A 
ATOM     66  O   MET A   7     -23.220 -16.178 -15.958  1.00  0.00    -0.277 OA
ATOM     67  N   ASP A   8     -23.308 -17.017 -14.365  1.00  0.00    -0.064 N 
ATOM     68  H   ASP A   8     -22.925 -16.577 -14.157  1.00  0.00     0.363 HD
BRANCH  67  69
ATOM     69  CA  ASP A   8     -23.926 -17.728 -14.701  1.00  0.00     0.521 A 
ATOM     70  C   ASP A   8     -23.602 -18.669 -14.796  1.00  0.00    -0.014 A 
ATOM     71  O   ASP A   8     -22.659 -18.899 -14.555  1.00  0.00     0.000 OA
ATOM     72  N   VAL A   9     -24.243 -19.508 -15.165  1.00  0.00     0.000 N 
ATOM     73  CG2 VAL A   9     -22.357 -19.968 -14.683  1.00  0.00     0.044 A 
ATOM     74  CB  VAL A   9     -22.975 -20.679 -15.018  1.00  0.00     0.015 A 
ATOM     75  CA  VAL A   9     -23.918 -20.449 -15.259  1.00  0.00     0.066 A 
ATOM     76  CG1 VAL A   9     -22.650 -21.620 -15.113  1.00  0.00     0.034 C 
ATOM     77  H   VAL A   9     -24.444 -18.924 -15.106  1.00  0.00     0.000 HD
ATOM     78  OD2 ASP A   8     -25.163 -19.150 -15.372  1.00  0.00     0.000 OA
ATOM     79  CG  ASP A   8     -25.487 -18.208 -15.277  1.00  0.00     0.067 A 
ATOM     80  CB  ASP A   8     -24.869 -17.498 -14.942  1.00  0.00     0.213 A 
BRANCH  75  81
ATOM     81  C   VAL A   9     -24.536 -21.159 -15.595  1.00  0.00     0.139 C 
ATOM     82  OXT VAL A   9     -25.043 -21.728 -14.947  1.00  0.00    -0.650 OA
BRANCH  81  83
ATOM     83  O   VAL A   9     -24.647 -21.302 -16.579  1.00  0.00    -0.776 OA
ATOM     84  H   VAL A   9     -24.151 -21.413 -16.934  1.00  0.00     0.167 HD
ENDBRANCH  81  83
ENDBRANCH  75  81
BRANCH  79  85
ATOM     85  OD1 ASP A   8     -26.430 -17.978 -15.518  1.00  0.00    -0.392 OA
ATOM     86  HD1 ASP A   8     -26.900 -18.309 -15.284  1.00  0.00     0.210 HD
ENDBRANCH  79  85
ENDBRANCH  67  69
ENDBRANCH  60  65
ENDBRANCH  58  60
ENDBRANCH  55  56
ENDBRANCH  53  55
ENDBRANCH   1  51
TORSDOF 20
ENDMDL
MODEL 3
REMARK VINA RESULT:     -15.1      2.110      4.098
REMARK  20 active torsions:
REMARK  status: ('A' for Active; 'I' for Inactive)
REMARK    1  A    between atoms: N_3  and  CA_4 
REMARK    2  A    between atoms: CA_4  and  CB_5 
REMARK    3  A    between atoms: CA_4  and  C_6 
REMARK    4  A    between atoms: CA_12  and  C_14 
REMARK       I    between atoms: N_19  and  C_14 
REMARK    5  A    between atoms: N_41  and  C_24 
REMARK       I    between atoms: N_35  and  C_77 
REMARK    6  A    between atoms: C_36  and  CA_37 
REMARK    7  A    between atoms: OH_40  and  CZ_50 
REMARK    8  A    between atoms: N_41  and  CA_42 
REMARK    9  A    between atoms: CA_42  and  CB_43 
REMARK   10  A    between atoms: CA_42  and  C_44 
REMARK   11  A    between atoms: CB_43  and  CG_45 
REMARK   12  A    between atoms: OD1_54  and  CG_60 
REMARK   13  A    between atoms: N_56  and  CA_57 
REMARK   14  A    between atoms: O_63  and  C_70 
REMARK   15  A    between atoms: CA_67  and  C_70 
REMARK   16  A    between atoms: N_74  and  CA_75 
REMARK   17  A    between atoms: CA_75  and  CB_76 
REMARK   18  A    between atoms: CA_75  and  C_77 
REMARK   19  A    between atoms: N_83  and  CA_84 
REMARK   20  A    between atoms: CA_84  and  C_85 
ROOT
ATOM      1  CA  TYR A   5     -19.531 -12.922 -13.103  1.00  0.00     0.263 C 
ENDROOT
BRANCH   1   2
ATOM      2  N   TYR A   5     -19.644 -12.822 -14.091  1.00  0.00    -0.371 N 
ATOM      3  H   TYR A   5     -19.714 -12.759 -14.704  1.00  0.00     0.161 HD
BRANCH   2   4
ATOM      4  C   TRP A   4     -24.935 -17.678 -15.594  1.00  0.00     0.087 A 
ATOM      5  O   TRP A   4     -25.810 -18.085 -15.854  1.00  0.00    -0.297 OA
ATOM      6  CA  TRP A   4     -24.165 -18.267 -15.342  1.00  0.00     0.130 A 
ATOM      7  N   TRP A   4     -24.272 -19.261 -15.349  1.00  0.00    -0.348 N 
ATOM      8  CB  TRP A   4     -23.289 -17.860 -15.083  1.00  0.00     0.084 A 
ATOM      9  H   TRP A   4     -24.749 -18.896 -15.506  1.00  0.00     0.191 HD
ATOM     10  C   VAL A   3     -23.452 -19.971 -15.078  1.00  0.00     0.244 C 
ATOM     11  O   VAL A   3     -22.576 -19.564 -14.819  1.00  0.00    -0.272 OA
ATOM     12  CG  TRP A   4     -23.183 -16.865 -15.076  1.00  0.00     0.006 A 
ATOM     13  CD2 TRP A   4     -23.884 -16.201 -15.309  1.00  0.00     0.032 A 
ATOM     14  CD1 TRP A   4     -22.356 -16.368 -14.834  1.00  0.00     0.106 A 
ATOM     15  CE2 TRP A   4     -23.488 -15.289 -15.211  1.00  0.00     0.054 A 
ATOM     16  CE3 TRP A   4     -24.836 -16.304 -15.600  1.00  0.00     0.238 A 
ATOM     17  CZ3 TRP A   4     -25.390 -15.495 -15.792  1.00  0.00    -0.012 A 
ATOM     18  CH2 TRP A   4     -24.994 -14.582 -15.693  1.00  0.00    -0.005 A 
ATOM     19  CZ2 TRP A   4     -24.042 -14.478 -15.403  1.00  0.00     0.004 A 
ATOM     20  NE1 TRP A   4     -22.544 -15.397 -14.917  1.00  0.00    -0.403 N 
ATOM     21  HE1 TRP A   4     -22.143 -14.937 -14.806  1.00  0.00     0.154 HD
BRANCH  10  22
ATOM     22  CA  VAL A   3     -23.559 -20.965 -15.085  1.00  0.00     0.571 A 
ATOM     23  N   VAL A   3     -24.462 -21.369 -15.227  1.00  0.00    -0.105 N 
ATOM     24  C   GLY A   2     -24.647 -22.471 -15.245  1.00  0.00     0.146 A 
ATOM     25  H   VAL A   3     -24.396 -20.753 -15.222  1.00  0.00     0.261 HD
ATOM     26  O   GLY A   2     -23.851 -23.061 -15.111  1.00  0.00     0.000 OA
ATOM     27  CG2 VAL A   3     -22.869 -22.548 -14.957  1.00  0.00     0.037 A 
ATOM     28  CB  VAL A   3     -22.763 -21.554 -14.950  1.00  0.00     0.078 A 
ATOM     29  CG1 VAL A   3     -21.859 -21.150 -14.809  1.00  0.00     0.007 C 
BRANCH  24  30
ATOM     30  CA  GLY A   2     -25.551 -22.877 -15.387  1.00  0.00     0.704 A 
ATOM     31  N   GLY A   2     -25.771 -23.316 -16.258  1.00  0.00    -0.059 N 
ATOM     32  C   VAL A   1     -26.762 -23.786 -16.477  1.00  0.00     0.333 C 
ATOM     33  H   GLY A   2     -25.211 -23.065 -16.170  1.00  0.00     0.293 HD
ATOM     34  O   VAL A   1     -27.445 -23.752 -15.748  1.00  0.00    -0.265 OA
BRANCH  32  35
ATOM     35  CA  VAL A   1     -26.982 -24.226 -17.348  1.00  0.00     0.334 C 
BRANCH  35  36
ATOM     36  N   VAL A   1     -27.409 -23.696 -18.081  1.00  0.00     0.091 NA
ATOM     37  H1  VAL A   1     -27.057 -23.392 -18.490  1.00  0.00     0.313 HD
ATOM     38  H2  VAL A   1     -27.144 -24.025 -17.627  1.00  0.00     0.295 HD
ENDBRANCH  35  36
BRANCH  35  39
ATOM     39  CB  VAL A   1     -26.775 -25.194 -17.486  1.00  0.00     0.003 C 
ATOM     40  CG1 VAL A   1     -27.511 -25.871 -17.462  1.00  0.00     0.038 C 
ATOM     41  CG2 VAL A   1     -25.832 -25.486 -17.648  1.00  0.00     0.007 C 
ENDBRANCH  35  39
ENDBRANCH  32  35
ENDBRANCH  24  30
ENDBRANCH  10  22
ENDBRANCH   2   4
ENDBRANCH   1   2
BRANCH   1  42
ATOM     42  CB  TYR A   5     -19.766 -12.166 -12.493  1.00  0.00     0.152 C 
BRANCH  42  43
ATOM     43  CG  TYR A   5     -20.675 -12.121 -12.079  1.00  0.00    -0.014 A 
ATOM     44  CD1 TYR A   5     -20.779 -11.818 -11.131  1.00  0.00    -0.015 A 
ATOM     45  CE1 TYR A   5     -21.688 -11.774 -10.717  1.00  0.00     0.033 A 
ATOM     46  CZ  TYR A   5     -22.494 -12.032 -11.251  1.00  0.00     0.065 A 
ATOM     47  CE2 TYR A   5     -22.390 -12.335 -12.198  1.00  0.00     0.033 A 
ATOM     48  CD2 TYR A   5     -21.481 -12.379 -12.612  1.00  0.00    -0.015 A 
BRANCH  46  49
ATOM     49  OH  TYR A   5     -23.403 -11.987 -10.837  1.00  0.00    -0.361 OA
ATOM     50  HH  TYR A   5     -23.869 -12.318 -11.077  1.00  0.00     0.217 HD
ENDBRANCH  46  49
ENDBRANCH  42  43
ENDBRANCH   1  42
BRANCH   1  51
ATOM     51  C   TYR A   5     -19.183 -13.780 -12.724  1.00  0.00     0.162 A 
ATOM     52  O   TYR A   5     -18.210 -13.875 -12.512  1.00  0.00    -0.293 OA
ATOM     53  N   GLY A   6     -19.829 -14.668 -12.515  1.00  0.00    -0.068 N 
ATOM     54  H   GLY A   6     -20.044 -14.136 -12.749  1.00  0.00     0.346 HD
BRANCH  53  55
ATOM     55  CA  GLY A   6     -19.480 -15.526 -12.136  1.00  0.00     0.841 C 
BRANCH  55  56
ATOM     56  C   GLY A   6     -19.965 -15.974 -11.384  1.00  0.00     0.173 A 
ATOM     57  O   GLY A   6     -20.815 -16.470 -11.563  1.00  0.00    -0.293 OA
ATOM     58  N   MET A   7     -19.609 -15.957 -10.325  1.00  0.00    -0.069 N 
ATOM     59  H   MET A   7     -19.308 -15.679 -10.791  1.00  0.00     0.346 HD
BRANCH  58  60
ATOM     60  CA  MET A   7     -20.093 -16.405  -9.573  1.00  0.00     0.591 C 
BRANCH  60  61
ATOM     61  CB  MET A   7     -20.635 -15.860  -8.933  1.00  0.00     0.165 A 
ATOM     62  CG  MET A   7     -20.351 -14.929  -8.704  1.00  0.00     0.085 A 
ATOM     63  SD  MET A   7     -20.894 -14.385  -8.063  1.00  0.00    -0.324 SA
ATOM     64  CE  MET A   7     -20.610 -13.454  -7.834  1.00  0.00     0.189 C 
ENDBRANCH  60  61
BRANCH  60  65
ATOM     65  C   MET A   7     -20.035 -17.397  -9.462  1.00  0.00     0.259 A 
ATOM     66  O   MET A   7     -20.813 -17.904  -9.092  1.00  0.00    -0.277 OA
ATOM     67  N   ASP A   8     -19.131 -17.995  -9.733  1.00  0.00    -0.064 N 
ATOM     68  H   ASP A   8     -19.166 -17.380  -9.802  1.00  0.00     0.363 HD
BRANCH  67  69
ATOM     69  CA  ASP A   8     -19.073 -18.987  -9.622  1.00  0.00     0.521 A 
ATOM     70  C   ASP A   8     -19.124 -19.584 -10.423  1.00  0.00    -0.014 A 
ATOM     71  O   ASP A   8     -19.232 -19.188 -11.335  1.00  0.00     0.000 OA
ATOM     72  N   VAL A   9     -19.066 -20.699 -10.365  1.00  0.00     0.000 N 
ATOM     73  CG2 VAL A   9     -19.283 -19.908 -12.189  1.00  0.00     0.044 A 
ATOM     74  CB  VAL A   9     -19.225 -20.900 -12.078  1.00  0.00     0.015 A 
ATOM     75  CA  VAL A   9     -19.116 -21.296 -11.166  1.00  0.00     0.066 A 
ATOM     76  CG1 VAL A   9     -19.276 -21.497 -12.879  1.00  0.00     0.034 C 
ATOM     77  H   VAL A   9     -19.034 -20.329  -9.868  1.00  0.00     0.000 HD
ATOM     78  OD2 ASP A   8     -18.957 -20.972  -9.400  1.00  0.00     0.000 OA
ATOM     79  CG  ASP A   8     -18.907 -20.375  -8.599  1.00  0.00     0.067 A 
ATOM     80  CB  ASP A   8     -18.964 -19.383  -8.710  1.00  0.00     0.213 A 
BRANCH  75  81
ATOM     81  C   VAL A   9     -19.059 -22.288 -11.055  1.00  0.00     0.139 C 
ATOM     82  OXT VAL A   9     -19.894 -22.835 -11.006  1.00  0.00    -0.650 OA
BRANCH  81  83
ATOM     83  O   VAL A   9     -18.165 -22.733 -10.992  1.00  0.00    -0.776 OA
ATOM     84  H   VAL A   9     -17.734 -22.510 -10.606  1.00  0.00     0.167 HD
ENDBRANCH  81  83
ENDBRANCH  75  81
BRANCH  79  85
ATOM     85  OD1 ASP A   8     -18.798 -20.770  -7.687  1.00  0.00    -0.392 OA
ATOM     86  HD1 ASP A   8     -19.156 -21.245  -7.510  1.00  0.00     0.210 HD
ENDBRANCH  79  85
ENDBRANCH  67  69
ENDBRANCH  60  65
ENDBRANCH  58  60
ENDBRANCH  55  56
ENDBRANCH  53  55
ENDBRANCH   1  51
TORSDOF 20
ENDMDL
MODEL 4
REMARK VINA RESULT:     -14.8      1.996      4.130
REMARK  20 active torsions:
REMARK  status: ('A' for Active; 'I' for Inactive)
REMARK    1  A    between atoms: N_3  and  CA_4 
REMARK    2  A    between atoms: CA_4  and  CB_5 
REMARK    3  A    between atoms: CA_4  and  C_6 
REMARK    4  A    between atoms: CA_12  and  C_14 
REMARK       I    between atoms: N_19  and  C_14 
REMARK    5  A    between atoms: N_41  and  C_24 
REMARK       I    between atoms: N_35  and  C_77 
REMARK    6  A    between atoms: C_36  and  CA_37 
REMARK    7  A    between atoms: OH_40  and  CZ_50 
REMARK    8  A    between atoms: N_41  and  CA_42 
REMARK    9  A    between atoms: CA_42  and  CB_43 
REMARK   10  A    between atoms: CA_42  and  C_44 
REMARK   11  A    between atoms: CB_43  and  CG_45 
REMARK   12  A    between atoms: OD1_54  and  CG_60 
REMARK   13  A    between atoms: N_56  and  CA_57 
REMARK   14  A    between atoms: O_63  and  C_70 
REMARK   15  A    between atoms: CA_67  and  C_70 
REMARK   16  A    between atoms: N_74  and  CA_75 
REMARK   17  A    between atoms: CA_75  and  CB_76 
REMARK   18  A    between atoms: CA_75  and  C_77 
REMARK   19  A    between atoms: N_83  and  CA_84 
REMARK   20  A    between atoms: CA_84  and  C_85 
ROOT
ATOM      1  CA  TYR A   5     -21.052 -12.891  -7.766  1.00  0.00     0.263 C 
ENDROOT
BRANCH   1   2
ATOM      2  N   TYR A   5     -21.689 -12.195  -8.098  1.00  0.00    -0.371 N 
ATOM      3  H   TYR A   5     -22.084 -11.764  -8.303  1.00  0.00     0.161 HD
BRANCH   2   4
ATOM      4  C   TRP A   4     -23.518 -14.740 -14.733  1.00  0.00     0.087 A 
ATOM      5  O   TRP A   4     -23.766 -14.790 -15.700  1.00  0.00    -0.297 OA
ATOM      6  CA  TRP A   4     -23.431 -15.579 -14.195  1.00  0.00     0.130 A 
ATOM      7  N   TRP A   4     -23.592 -16.468 -14.624  1.00  0.00    -0.348 N 
ATOM      8  CB  TRP A   4     -23.183 -15.529 -13.227  1.00  0.00     0.084 A 
ATOM      9  H   TRP A   4     -23.646 -15.947 -14.958  1.00  0.00     0.191 HD
ATOM     10  C   VAL A   3     -23.510 -17.440 -14.078  1.00  0.00     0.244 C 
ATOM     11  O   VAL A   3     -23.262 -17.390 -13.110  1.00  0.00    -0.272 OA
ATOM     12  CG  TRP A   4     -23.022 -14.640 -12.798  1.00  0.00     0.006 A 
ATOM     13  CD2 TRP A   4     -23.084 -13.755 -13.246  1.00  0.00     0.032 A 
ATOM     14  CD1 TRP A   4     -22.773 -14.487 -11.847  1.00  0.00     0.106 A 
ATOM     15  CE2 TRP A   4     -22.871 -13.052 -12.568  1.00  0.00     0.054 A 
ATOM     16  CE3 TRP A   4     -23.306 -13.493 -14.186  1.00  0.00     0.238 A 
ATOM     17  CZ3 TRP A   4     -23.316 -12.528 -14.446  1.00  0.00    -0.012 A 
ATOM     18  CH2 TRP A   4     -23.103 -11.825 -13.768  1.00  0.00    -0.005 A 
ATOM     19  CZ2 TRP A   4     -22.880 -12.086 -12.829  1.00  0.00     0.004 A 
ATOM     20  NE1 TRP A   4     -22.679 -13.509 -11.706  1.00  0.00    -0.403 N 
ATOM     21  HE1 TRP A   4     -22.528 -13.230 -11.173  1.00  0.00     0.154 HD
BRANCH  10  22
ATOM     22  CA  VAL A   3     -23.671 -18.328 -14.507  1.00  0.00     0.571 A 
ATOM     23  N   VAL A   3     -22.966 -19.036 -14.470  1.00  0.00    -0.105 N 
ATOM     24  C   GLY A   2     -23.085 -20.048 -14.930  1.00  0.00     0.146 A 
ATOM     25  H   VAL A   3     -22.866 -18.486 -14.204  1.00  0.00     0.261 HD
ATOM     26  O   GLY A   2     -23.951 -20.228 -15.397  1.00  0.00     0.000 OA
ATOM     27  CG2 VAL A   3     -24.698 -19.397 -15.403  1.00  0.00     0.037 A 
ATOM     28  CB  VAL A   3     -24.537 -18.509 -14.974  1.00  0.00     0.078 A 
ATOM     29  CG1 VAL A   3     -25.242 -17.801 -15.011  1.00  0.00     0.007 C 
BRANCH  24  30
ATOM     30  CA  GLY A   2     -22.380 -20.757 -14.893  1.00  0.00     0.704 A 
ATOM     31  N   GLY A   2     -21.499 -20.565 -14.460  1.00  0.00    -0.059 N 
ATOM     32  C   VAL A   1     -20.672 -21.313 -14.387  1.00  0.00     0.333 C 
ATOM     33  H   GLY A   2     -21.936 -20.125 -14.483  1.00  0.00     0.293 HD
ATOM     34  O   VAL A   1     -20.848 -22.214 -14.784  1.00  0.00    -0.265 OA
BRANCH  32  35
ATOM     35  CA  VAL A   1     -19.792 -21.121 -13.954  1.00  0.00     0.334 C 
BRANCH  35  36
ATOM     36  N   VAL A   1     -19.068 -20.666 -14.472  1.00  0.00     0.091 NA
ATOM     37  H1  VAL A   1     -19.123 -20.066 -14.620  1.00  0.00     0.313 HD
ATOM     38  H2  VAL A   1     -19.517 -20.948 -14.151  1.00  0.00     0.295 HD
ENDBRANCH  35  36
BRANCH  35  39
ATOM     39  CB  VAL A   1     -19.635 -21.385 -13.002  1.00  0.00     0.003 C 
ATOM     40  CG1 VAL A   1     -19.414 -20.688 -12.320  1.00  0.00     0.038 C 
ATOM     41  CG2 VAL A   1     -19.698 -22.346 -12.733  1.00  0.00     0.007 C 
ENDBRANCH  35  39
ENDBRANCH  32  35
ENDBRANCH  24  30
ENDBRANCH  10  22
ENDBRANCH   2   4
ENDBRANCH   1   2
BRANCH   1  42
ATOM     42  CB  TYR A   5     -20.253 -12.622  -7.229  1.00  0.00     0.152 C 
BRANCH  42  43
ATOM     43  CG  TYR A   5     -20.332 -11.898  -6.544  1.00  0.00    -0.014 A 
ATOM     44  CD1 TYR A   5     -19.572 -11.265  -6.395  1.00  0.00    -0.015 A 
ATOM     45  CE1 TYR A   5     -19.650 -10.541  -5.710  1.00  0.00     0.033 A 
ATOM     46  CZ  TYR A   5     -20.489 -10.450  -5.173  1.00  0.00     0.065 A 
ATOM     47  CE2 TYR A   5     -21.249 -11.083  -5.321  1.00  0.00     0.033 A 
ATOM     48  CD2 TYR A   5     -21.170 -11.807  -6.007  1.00  0.00    -0.015 A 
BRANCH  46  49
ATOM     49  OH  TYR A   5     -20.568  -9.727  -4.487  1.00  0.00    -0.361 OA
ATOM     50  HH  TYR A   5     -20.965  -9.259  -4.575  1.00  0.00     0.217 HD
ENDBRANCH  46  49
ENDBRANCH  42  43
ENDBRANCH   1  42
BRANCH   1  51
ATOM     51  C   TYR A   5     -21.215 -13.856  -7.971  1.00  0.00     0.162 A 
ATOM     52  O   TYR A   5     -22.051 -14.133  -8.444  1.00  0.00    -0.293 OA
ATOM     53  N   GLY A   6     -20.501 -14.672  -7.699  1.00  0.00    -0.068 N 
ATOM     54  H   GLY A   6     -20.400 -14.074  -7.572  1.00  0.00     0.346 HD
BRANCH  53  55
ATOM     55  CA  GLY A   6     -20.663 -15.638  -7.904  1.00  0.00     0.841 C 
BRANCH  55  56
ATOM     56  C   GLY A   6     -20.004 -16.149  -8.456  1.00  0.00     0.173 A 
ATOM     57  O   GLY A   6     -19.082 -15.789  -8.595  1.00  0.00    -0.293 OA
ATOM     58  N   MET A   7     -20.237 -17.128  -8.943  1.00  0.00    -0.069 N 
ATOM     59  H   MET A   7     -20.646 -16.811  -8.601  1.00  0.00     0.346 HD
BRANCH  58  60
ATOM     60  CA  MET A   7     -19.578 -17.640  -9.494  1.00  0.00     0.591 C 
BRANCH  60  61
ATOM     61  CB  MET A   7     -19.104 -18.428  -9.103  1.00  0.00     0.165 A 
ATOM     62  CG  MET A   7     -19.621 -19.134  -8.619  1.00  0.00     0.085 A 
ATOM     63  SD  MET A   7     -19.147 -19.922  -8.227  1.00  0.00    -0.324 SA
ATOM     64  CE  MET A   7     -19.665 -20.627  -7.743  1.00  0.00     0.189 C 
ENDBRANCH  60  61
BRANCH  60  65
ATOM     65  C   MET A   7     -19.394 -17.363 -10.437  1.00  0.00     0.259 A 
ATOM     66  O   MET A   7     -18.495 -17.532 -10.841  1.00  0.00    -0.277 OA
ATOM     67  N   ASP A   8     -20.149 -16.862 -11.091  1.00  0.00    -0.064 N 
ATOM     68  H   ASP A   8     -20.264 -17.033 -10.507  1.00  0.00     0.363 HD
BRANCH  67  69
ATOM     69  CA  ASP A   8     -19.965 -16.585 -12.034  1.00  0.00     0.521 A 
ATOM     70  C   ASP A   8     -19.747 -15.631 -12.242  1.00  0.00    -0.014 A 
ATOM     71  O   ASP A   8     -19.714 -14.954 -11.507  1.00  0.00     0.000 OA
ATOM     72  N   VAL A   9     -19.532 -15.259 -13.274  1.00  0.00     0.000 N 
ATOM     73  CG2 VAL A   9     -19.466 -13.905 -11.803  1.00  0.00     0.044 A 
ATOM     74  CB  VAL A   9     -19.281 -13.629 -12.746  1.00  0.00     0.015 A 
ATOM     75  CA  VAL A   9     -19.314 -14.305 -13.482  1.00  0.00     0.066 A 
ATOM     76  CG1 VAL A   9     -19.064 -12.675 -12.954  1.00  0.00     0.034 C 
ATOM     77  H   VAL A   9     -19.667 -15.850 -13.145  1.00  0.00     0.000 HD
ATOM     78  OD2 ASP A   8     -19.596 -16.031 -13.920  1.00  0.00     0.000 OA
ATOM     79  CG  ASP A   8     -19.814 -16.985 -13.713  1.00  0.00     0.067 A 
ATOM     80  CB  ASP A   8     -19.998 -17.262 -12.770  1.00  0.00     0.213 A 
BRANCH  75  81
ATOM     81  C   VAL A   9     -19.130 -14.029 -14.425  1.00  0.00     0.139 C 
ATOM     82  OXT VAL A   9     -19.869 -13.668 -14.994  1.00  0.00    -0.650 OA
BRANCH  81  83
ATOM     83  O   VAL A   9     -18.207 -14.113 -14.799  1.00  0.00    -0.776 OA
ATOM     84  H   VAL A   9     -17.867 -14.616 -14.675  1.00  0.00     0.167 HD
ENDBRANCH  81  83
ENDBRANCH  75  81
BRANCH  79  85
ATOM     85  OD1 ASP A   8     -19.847 -17.662 -14.448  1.00  0.00    -0.392 OA
ATOM     86  HD1 ASP A   8     -19.561 -18.208 -14.380  1.00  0.00     0.210 HD
ENDBRANCH  79  85
ENDBRANCH  67  69
ENDBRANCH  60  65
ENDBRANCH  58  60
ENDBRANCH  55  56
ENDBRANCH  53  55
ENDBRANCH   1  51
TORSDOF 20
ENDMDL
MODEL 5
REMARK VINA RESULT:     -14.8      2.449      3.764
REMARK  20 active torsions:
REMARK  status: ('A' for Active; 'I' for Inactive)
REMARK    1  A    between atoms: N_3  and  CA_4 
REMARK    2  A    between atoms: CA_4  and  CB_5 
REMARK    3  A    between atoms: CA_4  and  C_6 
REMARK    4  A    between atoms: CA_12  and  C_14 
REMARK       I    between atoms: N_19  and  C_14 
REMARK    5  A    between atoms: N_41  and  C_24 
REMARK       I    between atoms: N_35  and  C_77 
REMARK    6  A    between atoms: C_36  and  CA_37 
REMARK    7  A    between atoms: OH_40  and  CZ_50 
REMARK    8  A    between atoms: N_41  and  CA_42 
REMARK    9  A    between atoms: CA_42  and  CB_43 
REMARK   10  A    between atoms: CA_42  and  C_44 
REMARK   11  A    between atoms: CB_43  and  CG_45 
REMARK   12  A    between atoms: OD1_54  and  CG_60 
REMARK   13  A    between atoms: N_56  and  CA_57 
REMARK   14  A    between atoms: O_63  and  C_70 
REMARK   15  A    between atoms: CA_67  and  C_70 
REMARK   16  A    between atoms: N_74  and  CA_75 
REMARK   17  A    between atoms: CA_75  and  CB_76 
REMARK   18  A    between atoms: CA_75  and  C_77 
REMARK   19  A    between atoms: N_83  and  CA_84 
REMARK   20  A    between atoms: CA_84  and  C_85 
ROOT
ATOM      1  CA  TYR A   5     -22.702 -13.631  -9.588  1.00  0.00     0.263 C 
ENDROOT
BRANCH   1   2
ATOM      2  N   TYR A   5     -23.347 -13.133 -10.167  1.00  0.00    -0.371 N 
ATOM      3  H   TYR A   5     -23.747 -12.825 -10.526  1.00  0.00     0.161 HD
BRANCH   2   4
ATOM      4  C   TRP A   4     -23.714 -17.367 -16.148  1.00  0.00     0.087 A 
ATOM      5  O   TRP A   4     -23.758 -17.673 -17.099  1.00  0.00    -0.297 OA
ATOM      6  CA  TRP A   4     -23.715 -18.039 -15.406  1.00  0.00     0.130 A 
ATOM      7  N   TRP A   4     -23.760 -19.016 -15.616  1.00  0.00    -0.348 N 
ATOM      8  CB  TRP A   4     -23.671 -17.733 -14.455  1.00  0.00     0.084 A 
ATOM      9  H   TRP A   4     -23.759 -18.599 -16.076  1.00  0.00     0.191 HD
ATOM     10  C   VAL A   3     -23.764 -19.814 -14.833  1.00  0.00     0.244 C 
ATOM     11  O   VAL A   3     -23.720 -19.508 -13.882  1.00  0.00    -0.272 OA
ATOM     12  CG  TRP A   4     -23.626 -16.756 -14.246  1.00  0.00     0.006 A 
ATOM     13  CD2 TRP A   4     -23.619 -16.017 -14.910  1.00  0.00     0.032 A 
ATOM     14  CD1 TRP A   4     -23.579 -16.355 -13.337  1.00  0.00     0.106 A 
ATOM     15  CE2 TRP A   4     -23.569 -15.154 -14.408  1.00  0.00     0.054 A 
ATOM     16  CE3 TRP A   4     -23.653 -16.012 -15.910  1.00  0.00     0.238 A 
ATOM     17  CZ3 TRP A   4     -23.636 -15.144 -16.406  1.00  0.00    -0.012 A 
ATOM     18  CH2 TRP A   4     -23.585 -14.281 -15.904  1.00  0.00    -0.005 A 
ATOM     19  CZ2 TRP A   4     -23.552 -14.285 -14.904  1.00  0.00     0.004 A 
ATOM     20  NE1 TRP A   4     -23.544 -15.367 -13.437  1.00  0.00    -0.403 N 
ATOM     21  HE1 TRP A   4     -23.513 -14.955 -12.975  1.00  0.00     0.154 HD
BRANCH  10  22
ATOM     22  CA  VAL A   3     -23.809 -20.791 -15.043  1.00  0.00     0.571 A 
ATOM     23  N   VAL A   3     -24.696 -21.235 -15.164  1.00  0.00    -0.105 N 
ATOM     24  C   GLY A   2     -24.813 -22.322 -15.399  1.00  0.00     0.146 A 
ATOM     25  H   VAL A   3     -24.669 -20.630 -15.034  1.00  0.00     0.261 HD
ATOM     26  O   GLY A   2     -23.971 -22.854 -15.487  1.00  0.00     0.000 OA
ATOM     27  CG2 VAL A   3     -23.012 -22.299 -15.340  1.00  0.00     0.037 A 
ATOM     28  CB  VAL A   3     -22.967 -21.323 -15.130  1.00  0.00     0.078 A 
ATOM     29  CG1 VAL A   3     -22.080 -20.878 -15.009  1.00  0.00     0.007 C 
BRANCH  24  30
ATOM     30  CA  GLY A   2     -25.701 -22.767 -15.521  1.00  0.00     0.704 A 
ATOM     31  N   GLY A   2     -25.890 -23.288 -16.353  1.00  0.00    -0.059 N 
ATOM     32  C   VAL A   1     -26.860 -23.808 -16.548  1.00  0.00     0.333 C 
ATOM     33  H   GLY A   2     -25.340 -23.012 -16.278  1.00  0.00     0.293 HD
ATOM     34  O   VAL A   1     -27.559 -23.732 -15.837  1.00  0.00    -0.265 OA
BRANCH  32  35
ATOM     35  CA  VAL A   1     -27.049 -24.328 -17.381  1.00  0.00     0.334 C 
BRANCH  35  36
ATOM     36  N   VAL A   1     -27.532 -23.896 -18.143  1.00  0.00     0.091 NA
ATOM     37  H1  VAL A   1     -28.142 -23.795 -18.105  1.00  0.00     0.313 HD
ATOM     38  H2  VAL A   1     -27.232 -24.164 -17.670  1.00  0.00     0.295 HD
ENDBRANCH  35  36
BRANCH  35  39
ATOM     39  CB  VAL A   1     -26.755 -25.282 -17.452  1.00  0.00     0.003 C 
ATOM     40  CG1 VAL A   1     -27.433 -26.007 -17.565  1.00  0.00     0.038 C 
ATOM     41  CG2 VAL A   1     -25.782 -25.509 -17.411  1.00  0.00     0.007 C 
ENDBRANCH  35  39
ENDBRANCH  32  35
ENDBRANCH  24  30
ENDBRANCH  10  22
ENDBRANCH   2   4
ENDBRANCH   1   2
BRANCH   1  42
ATOM     42  CB  TYR A   5     -23.022 -14.082  -8.755  1.00  0.00     0.152 C 
BRANCH  42  43
ATOM     43  CG  TYR A   5     -23.490 -14.964  -8.812  1.00  0.00    -0.014 A 
ATOM     44  CD1 TYR A   5     -23.020 -15.755  -9.202  1.00  0.00    -0.015 A 
ATOM     45  CE1 TYR A   5     -23.487 -16.637  -9.260  1.00  0.00     0.033 A 
ATOM     46  CZ  TYR A   5     -24.426 -16.728  -8.927  1.00  0.00     0.065 A 
ATOM     47  CE2 TYR A   5     -24.897 -15.936  -8.537  1.00  0.00     0.033 A 
ATOM     48  CD2 TYR A   5     -24.429 -15.054  -8.479  1.00  0.00    -0.015 A 
BRANCH  46  49
ATOM     49  OH  TYR A   5     -24.894 -17.609  -8.985  1.00  0.00    -0.361 OA
ATOM     50  HH  TYR A   5     -25.205 -17.828  -8.495  1.00  0.00     0.217 HD
ENDBRANCH  46  49
ENDBRANCH  42  43
ENDBRANCH   1  42
BRANCH   1  51
ATOM     51  C   TYR A   5     -21.735 -13.678  -9.841  1.00  0.00     0.162 A 
ATOM     52  O   TYR A   5     -21.037 -13.328  -9.216  1.00  0.00    -0.293 OA
ATOM     53  N   GLY A   6     -21.372 -14.108 -10.807  1.00  0.00    -0.068 N 
ATOM     54  H   GLY A   6     -21.971 -14.079 -10.649  1.00  0.00     0.346 HD
BRANCH  53  55
ATOM     55  CA  GLY A   6     -20.406 -14.155 -11.060  1.00  0.00     0.841 C 
BRANCH  55  56
ATOM     56  C   GLY A   6     -20.060 -14.942 -11.571  1.00  0.00     0.173 A 
ATOM     57  O   GLY A   6     -20.651 -15.411 -12.227  1.00  0.00    -0.293 OA
ATOM     58  N   MET A   7     -19.024 -15.346 -11.453  1.00  0.00    -0.069 N 
ATOM     59  H   MET A   7     -19.239 -14.858 -11.137  1.00  0.00     0.346 HD
BRANCH  58  60
ATOM     60  CA  MET A   7     -18.679 -16.134 -11.964  1.00  0.00     0.591 C 
BRANCH  60  61
ATOM     61  CB  MET A   7     -18.439 -16.037 -12.930  1.00  0.00     0.165 A 
ATOM     62  CG  MET A   7     -17.771 -15.349 -13.213  1.00  0.00     0.085 A 
ATOM     63  SD  MET A   7     -17.531 -15.253 -14.179  1.00  0.00    -0.324 SA
ATOM     64  CE  MET A   7     -16.862 -14.565 -14.462  1.00  0.00     0.189 C 
ENDBRANCH  60  61
BRANCH  60  65
ATOM     65  C   MET A   7     -18.573 -17.018 -11.508  1.00  0.00     0.259 A 
ATOM     66  O   MET A   7     -17.719 -17.238 -11.037  1.00  0.00    -0.277 OA
ATOM     67  N   ASP A   8     -19.371 -17.800 -11.490  1.00  0.00    -0.064 N 
ATOM     68  H   ASP A   8     -19.437 -17.252 -11.772  1.00  0.00     0.363 HD
BRANCH  67  69
ATOM     69  CA  ASP A   8     -19.265 -18.684 -11.034  1.00  0.00     0.521 A 
ATOM     70  C   ASP A   8     -19.306 -19.529 -11.567  1.00  0.00    -0.014 A 
ATOM     71  O   ASP A   8     -19.452 -19.491 -12.556  1.00  0.00     0.000 OA
ATOM     72  N   VAL A   9     -19.195 -20.547 -11.118  1.00  0.00     0.000 N 
ATOM     73  CG2 VAL A   9     -19.487 -20.470 -13.095  1.00  0.00     0.044 A 
ATOM     74  CB  VAL A   9     -19.382 -21.353 -12.640  1.00  0.00     0.015 A 
ATOM     75  CA  VAL A   9     -19.235 -21.392 -11.651  1.00  0.00     0.066 A 
ATOM     76  CG1 VAL A   9     -19.422 -22.199 -13.173  1.00  0.00     0.034 C 
ATOM     77  H   VAL A   9     -19.170 -20.023 -10.788  1.00  0.00     0.000 HD
ATOM     78  OD2 ASP A   8     -19.054 -20.452 -10.124  1.00  0.00     0.000 OA
ATOM     79  CG  ASP A   8     -19.013 -19.607  -9.590  1.00  0.00     0.067 A 
ATOM     80  CB  ASP A   8     -19.119 -18.723 -10.046  1.00  0.00     0.213 A 
BRANCH  75  81
ATOM     81  C   VAL A   9     -19.130 -22.276 -11.196  1.00  0.00     0.139 C 
ATOM     82  OXT VAL A   9     -19.936 -22.773 -10.874  1.00  0.00    -0.650 OA
BRANCH  81  83
ATOM     83  O   VAL A   9     -18.218 -22.664 -11.062  1.00  0.00    -0.776 OA
ATOM     84  H   VAL A   9     -17.786 -22.600 -11.502  1.00  0.00     0.167 HD
ENDBRANCH  81  83
ENDBRANCH  75  81
BRANCH  79  85
ATOM     85  OD1 ASP A   8     -18.867 -19.646  -8.602  1.00  0.00    -0.392 OA
ATOM     86  HD1 ASP A   8     -18.381 -19.954  -8.372  1.00  0.00     0.210 HD
ENDBRANCH  79  85
ENDBRANCH  67  69
ENDBRANCH  60  65
ENDBRANCH  58  60
ENDBRANCH  55  56
ENDBRANCH  53  55
ENDBRANCH   1  51
TORSDOF 20
ENDMDL
MODEL 6
REMARK VINA RESULT:     -14.7      2.300      5.897
REMARK  20 active torsions:
REMARK  status: ('A' for Active; 'I' for Inactive)
REMARK    1  A    between atoms: N_3  and  CA_4 
REMARK    2  A    between atoms: CA_4  and  CB_5 
REMARK    3  A    between atoms: CA_4  and  C_6 
REMARK    4  A    between atoms: CA_12  and  C_14 
REMARK       I    between atoms: N_19  and  C_14 
REMARK    5  A    between atoms: N_41  and  C_24 
REMARK       I    between atoms: N_35  and  C_77 
REMARK    6  A    between atoms: C_36  and  CA_37 
REMARK    7  A    between atoms: OH_40  and  CZ_50 
REMARK    8  A    between atoms: N_41  and  CA_42 
REMARK    9  A    between atoms: CA_42  and  CB_43 
REMARK   10  A    between atoms: CA_42  and  C_44 
REMARK   11  A    between atoms: CB_43  and  CG_45 
REMARK   12  A    between atoms: OD1_54  and  CG_60 
REMARK   13  A    between atoms: N_56  and  CA_57 
REMARK   14  A    between atoms: O_63  and  C_70 
REMARK   15  A    between atoms: CA_67  and  C_70 
REMARK   16  A    between atoms: N_74  and  CA_75 
REMARK   17  A    between atoms: CA_75  and  CB_76 
REMARK   18  A    between atoms: CA_75  and  C_77 
REMARK   19  A    between atoms: N_83  and  CA_84 
REMARK   20  A    between atoms: CA_84  and  C_85 
ROOT
ATOM      1  CA  TYR A   5     -20.316 -14.255 -15.034  1.00  0.00     0.263 C 
ENDROOT
BRANCH   1   2
ATOM      2  N   TYR A   5     -20.166 -14.973 -15.714  1.00  0.00    -0.371 N 
ATOM      3  H   TYR A   5     -20.073 -15.418 -16.135  1.00  0.00     0.161 HD
BRANCH   2   4
ATOM      4  C   TRP A   4     -25.296 -19.920 -13.968  1.00  0.00     0.087 A 
ATOM      5  O   TRP A   4     -26.104 -20.358 -13.574  1.00  0.00    -0.297 OA
ATOM      6  CA  TRP A   4     -24.683 -20.443 -14.562  1.00  0.00     0.130 A 
ATOM      7  N   TRP A   4     -24.879 -21.403 -14.762  1.00  0.00    -0.348 N 
ATOM      8  CB  TRP A   4     -23.875 -20.005 -14.955  1.00  0.00     0.084 A 
ATOM      9  H   TRP A   4     -25.259 -21.079 -14.393  1.00  0.00     0.191 HD
ATOM     10  C   VAL A   3     -24.235 -22.040 -15.417  1.00  0.00     0.244 C 
ATOM     11  O   VAL A   3     -23.426 -21.602 -15.810  1.00  0.00    -0.272 OA
ATOM     12  CG  TRP A   4     -23.679 -19.045 -14.755  1.00  0.00     0.006 A 
ATOM     13  CD2 TRP A   4     -24.225 -18.446 -14.180  1.00  0.00     0.032 A 
ATOM     14  CD1 TRP A   4     -22.904 -18.523 -15.097  1.00  0.00     0.106 A 
ATOM     15  CE2 TRP A   4     -23.784 -17.548 -14.166  1.00  0.00     0.054 A 
ATOM     16  CE3 TRP A   4     -25.068 -18.596 -13.663  1.00  0.00     0.238 A 
ATOM     17  CZ3 TRP A   4     -25.470 -17.849 -13.134  1.00  0.00    -0.012 A 
ATOM     18  CH2 TRP A   4     -25.029 -16.952 -13.120  1.00  0.00    -0.005 A 
ATOM     19  CZ2 TRP A   4     -24.186 -16.801 -13.637  1.00  0.00     0.004 A 
ATOM     20  NE1 TRP A   4     -22.969 -17.601 -14.734  1.00  0.00    -0.403 N 
ATOM     21  HE1 TRP A   4     -22.571 -17.138 -14.842  1.00  0.00     0.154 HD
BRANCH  10  22
ATOM     22  CA  VAL A   3     -24.431 -23.000 -15.617  1.00  0.00     0.571 A 
ATOM     23  N   VAL A   3     -25.278 -23.250 -16.083  1.00  0.00    -0.105 N 
ATOM     24  C   GLY A   2     -25.555 -24.303 -16.335  1.00  0.00     0.146 A 
ATOM     25  H   VAL A   3     -25.157 -22.655 -15.959  1.00  0.00     0.261 HD
ATOM     26  O   GLY A   2     -24.903 -25.013 -16.068  1.00  0.00     0.000 OA
ATOM     27  CG2 VAL A   3     -23.974 -24.669 -15.550  1.00  0.00     0.037 A 
ATOM     28  CB  VAL A   3     -23.778 -23.709 -15.351  1.00  0.00     0.078 A 
ATOM     29  CG1 VAL A   3     -22.930 -23.459 -14.884  1.00  0.00     0.007 C 
BRANCH  24  30
ATOM     30  CA  GLY A   2     -26.404 -24.554 -16.801  1.00  0.00     0.704 A 
ATOM     31  N   GLY A   2     -26.530 -25.485 -17.144  1.00  0.00    -0.059 N 
ATOM     32  C   VAL A   1     -27.454 -25.827 -17.673  1.00  0.00     0.333 C 
ATOM     33  H   GLY A   2     -26.004 -25.330 -16.855  1.00  0.00     0.293 HD
ATOM     34  O   VAL A   1     -28.176 -25.146 -17.797  1.00  0.00    -0.265 OA
BRANCH  32  35
ATOM     35  CA  VAL A   1     -27.580 -26.758 -18.016  1.00  0.00     0.334 C 
BRANCH  35  36
ATOM     36  N   VAL A   1     -27.183 -27.025 -18.894  1.00  0.00     0.091 NA
ATOM     37  H1  VAL A   1     -26.900 -26.602 -19.248  1.00  0.00     0.313 HD
ATOM     38  H2  VAL A   1     -27.429 -26.859 -18.350  1.00  0.00     0.295 HD
ENDBRANCH  35  36
BRANCH  35  39
ATOM     39  CB  VAL A   1     -28.103 -27.421 -17.482  1.00  0.00     0.003 C 
ATOM     40  CG1 VAL A   1     -29.100 -27.350 -17.434  1.00  0.00     0.038 C 
ATOM     41  CG2 VAL A   1     -27.630 -28.155 -16.994  1.00  0.00     0.007 C 
ENDBRANCH  35  39
ENDBRANCH  32  35
ENDBRANCH  24  30
ENDBRANCH  10  22
ENDBRANCH   2   4
ENDBRANCH   1   2
BRANCH   1  42
ATOM     42  CB  TYR A   5     -20.901 -13.474 -15.252  1.00  0.00     0.152 C 
BRANCH  42  43
ATOM     43  CG  TYR A   5     -21.879 -13.610 -15.406  1.00  0.00    -0.014 A 
ATOM     44  CD1 TYR A   5     -22.537 -13.365 -14.694  1.00  0.00    -0.015 A 
ATOM     45  CE1 TYR A   5     -23.515 -13.500 -14.848  1.00  0.00     0.033 A 
ATOM     46  CZ  TYR A   5     -23.837 -13.882 -15.715  1.00  0.00     0.065 A 
ATOM     47  CE2 TYR A   5     -23.179 -14.127 -16.427  1.00  0.00     0.033 A 
ATOM     48  CD2 TYR A   5     -22.201 -13.991 -16.273  1.00  0.00    -0.015 A 
BRANCH  46  49
ATOM     49  OH  TYR A   5     -24.815 -14.018 -15.869  1.00  0.00    -0.361 OA
ATOM     50  HH  TYR A   5     -25.199 -14.085 -15.387  1.00  0.00     0.217 HD
ENDBRANCH  46  49
ENDBRANCH  42  43
ENDBRANCH   1  42
BRANCH   1  51
ATOM     51  C   TYR A   5     -19.881 -14.319 -14.136  1.00  0.00     0.162 A 
ATOM     52  O   TYR A   5     -19.141 -13.691 -13.893  1.00  0.00    -0.293 OA
ATOM     53  N   GLY A   6     -20.175 -15.068 -13.360  1.00  0.00    -0.068 N 
ATOM     54  H   GLY A   6     -20.445 -15.029 -13.917  1.00  0.00     0.346 HD
BRANCH  53  55
ATOM     55  CA  GLY A   6     -19.740 -15.132 -12.462  1.00  0.00     0.841 C 
BRANCH  55  56
ATOM     56  C   GLY A   6     -20.223 -15.566 -11.702  1.00  0.00     0.173 A 
ATOM     57  O   GLY A   6     -21.134 -15.954 -11.845  1.00  0.00    -0.293 OA
ATOM     58  N   MET A   7     -19.800 -15.649 -10.670  1.00  0.00    -0.069 N 
ATOM     59  H   MET A   7     -19.501 -15.379 -11.141  1.00  0.00     0.346 HD
BRANCH  58  60
ATOM     60  CA  MET A   7     -20.284 -16.083  -9.910  1.00  0.00     0.591 C 
BRANCH  60  61
ATOM     61  CB  MET A   7     -20.868 -15.535  -9.311  1.00  0.00     0.165 A 
ATOM     62  CG  MET A   7     -20.551 -14.647  -8.979  1.00  0.00     0.085 A 
ATOM     63  SD  MET A   7     -21.135 -14.099  -8.380  1.00  0.00    -0.324 SA
ATOM     64  CE  MET A   7     -20.818 -13.211  -8.048  1.00  0.00     0.189 C 
ENDBRANCH  60  61
BRANCH  60  65
ATOM     65  C   MET A   7     -20.183 -17.064  -9.748  1.00  0.00     0.259 A 
ATOM     66  O   MET A   7     -20.930 -17.582  -9.331  1.00  0.00    -0.277 OA
ATOM     67  N   ASP A   8     -19.261 -17.640 -10.011  1.00  0.00    -0.064 N 
ATOM     68  H   ASP A   8     -19.324 -17.031 -10.111  1.00  0.00     0.363 HD
BRANCH  67  69
ATOM     69  CA  ASP A   8     -19.160 -18.622  -9.849  1.00  0.00     0.521 A 
ATOM     70  C   ASP A   8     -19.206 -19.262 -10.616  1.00  0.00    -0.014 A 
ATOM     71  O   ASP A   8     -19.352 -18.920 -11.544  1.00  0.00     0.000 OA
ATOM     72  N   VAL A   9     -19.100 -20.369 -10.501  1.00  0.00     0.000 N 
ATOM     73  CG2 VAL A   9     -19.394 -19.686 -12.358  1.00  0.00     0.044 A 
ATOM     74  CB  VAL A   9     -19.293 -20.668 -12.196  1.00  0.00     0.015 A 
ATOM     75  CA  VAL A   9     -19.146 -21.009 -11.268  1.00  0.00     0.066 A 
ATOM     76  CG1 VAL A   9     -19.338 -21.308 -12.963  1.00  0.00     0.034 C 
ATOM     77  H   VAL A   9     -19.072 -19.972 -10.026  1.00  0.00     0.000 HD
ATOM     78  OD2 ASP A   8     -18.958 -20.585  -9.526  1.00  0.00     0.000 OA
ATOM     79  CG  ASP A   8     -18.912 -19.945  -8.759  1.00  0.00     0.067 A 
ATOM     80  CB  ASP A   8     -19.013 -18.963  -8.921  1.00  0.00     0.213 A 
BRANCH  75  81
ATOM     81  C   VAL A   9     -19.045 -21.991 -11.107  1.00  0.00     0.139 C 
ATOM     82  OXT VAL A   9     -19.856 -22.568 -11.012  1.00  0.00    -0.650 OA
BRANCH  81  83
ATOM     83  O   VAL A   9     -18.133 -22.395 -11.040  1.00  0.00    -0.776 OA
ATOM     84  H   VAL A   9     -18.067 -23.011 -11.022  1.00  0.00     0.167 HD
ENDBRANCH  81  83
ENDBRANCH  75  81
BRANCH  79  85
ATOM     85  OD1 ASP A   8     -18.765 -20.286  -7.831  1.00  0.00    -0.392 OA
ATOM     86  HD1 ASP A   8     -18.538 -20.856  -7.743  1.00  0.00     0.210 HD
ENDBRANCH  79  85
ENDBRANCH  67  69
ENDBRANCH  60  65
ENDBRANCH  58  60
ENDBRANCH  55  56
ENDBRANCH  53  55
ENDBRANCH   1  51
TORSDOF 20
ENDMDL
MODEL 7
REMARK VINA RESULT:     -14.7      2.465     10.273
REMARK  20 active torsions:
REMARK  status: ('A' for Active; 'I' for Inactive)
REMARK    1  A    between atoms: N_3  and  CA_4 
REMARK    2  A    between atoms: CA_4  and  CB_5 
REMARK    3  A    between atoms: CA_4  and  C_6 
REMARK    4  A    between atoms: CA_12  and  C_14 
REMARK       I    between atoms: N_19  and  C_14 
REMARK    5  A    between atoms: N_41  and  C_24 
REMARK       I    between atoms: N_35  and  C_77 
REMARK    6  A    between atoms: C_36  and  CA_37 
REMARK    7  A    between atoms: OH_40  and  CZ_50 
REMARK    8  A    between atoms: N_41  and  CA_42 
REMARK    9  A    between atoms: CA_42  and  CB_43 
REMARK   10  A    between atoms: CA_42  and  C_44 
REMARK   11  A    between atoms: CB_43  and  CG_45 
REMARK   12  A    between atoms: OD1_54  and  CG_60 
REMARK   13  A    between atoms: N_56  and  CA_57 
REMARK   14  A    between atoms: O_63  and  C_70 
REMARK   15  A    between atoms: CA_67  and  C_70 
REMARK   16  A    between atoms: N_74  and  CA_75 
REMARK   17  A    between atoms: CA_75  and  CB_76 
REMARK   18  A    between atoms: CA_75  and  C_77 
REMARK   19  A    between atoms: N_83  and  CA_84 
REMARK   20  A    between atoms: CA_84  and  C_85 
ROOT
ATOM      1  CA  TYR A   5     -19.135 -19.126 -12.546  1.00  0.00     0.263 C 
ENDROOT
BRANCH   1   2
ATOM      2  N   TYR A   5     -18.747 -18.958 -11.640  1.00  0.00    -0.371 N 
ATOM      3  H   TYR A   5     -18.506 -18.853 -11.078  1.00  0.00     0.161 HD
BRANCH   2   4
ATOM      4  C   TRP A   4     -22.288 -12.901  -9.491  1.00  0.00     0.087 A 
ATOM      5  O   TRP A   4     -22.925 -12.132  -9.452  1.00  0.00    -0.297 OA
ATOM      6  CA  TRP A   4     -21.605 -13.021  -8.768  1.00  0.00     0.130 A 
ATOM      7  N   TRP A   4     -21.561 -12.373  -8.009  1.00  0.00    -0.348 N 
ATOM      8  CB  TRP A   4     -20.968 -13.791  -8.807  1.00  0.00     0.084 A 
ATOM      9  H   TRP A   4     -21.984 -12.298  -8.457  1.00  0.00     0.191 HD
ATOM     10  C   VAL A   3     -20.823 -12.453  -7.172  1.00  0.00     0.244 C 
ATOM     11  O   VAL A   3     -20.186 -13.222  -7.211  1.00  0.00    -0.272 OA
ATOM     12  CG  TRP A   4     -21.013 -14.440  -9.567  1.00  0.00     0.006 A 
ATOM     13  CD2 TRP A   4     -21.651 -14.405 -10.327  1.00  0.00     0.032 A 
ATOM     14  CD1 TRP A   4     -20.425 -15.232  -9.693  1.00  0.00     0.106 A 
ATOM     15  CE2 TRP A   4     -21.457 -15.181 -10.927  1.00  0.00     0.054 A 
ATOM     16  CE3 TRP A   4     -22.388 -13.768 -10.557  1.00  0.00     0.238 A 
ATOM     17  CZ3 TRP A   4     -22.929 -13.908 -11.385  1.00  0.00    -0.012 A 
ATOM     18  CH2 TRP A   4     -22.735 -14.684 -11.985  1.00  0.00    -0.005 A 
ATOM     19  CZ2 TRP A   4     -21.998 -15.321 -11.756  1.00  0.00     0.004 A 
ATOM     20  NE1 TRP A   4     -20.699 -15.689 -10.531  1.00  0.00    -0.403 N 
ATOM     21  HE1 TRP A   4     -20.443 -16.202 -10.768  1.00  0.00     0.154 HD
BRANCH  10  22
ATOM     22  CA  VAL A   3     -20.779 -11.804  -6.413  1.00  0.00     0.571 A 
ATOM     23  N   VAL A   3     -21.602 -11.596  -5.885  1.00  0.00    -0.105 N 
ATOM     24  C   GLY A   2     -21.618 -10.881  -5.026  1.00  0.00     0.146 A 
ATOM     25  H   VAL A   3     -21.630 -11.998  -6.356  1.00  0.00     0.261 HD
ATOM     26  O   GLY A   2     -20.751 -10.441  -4.794  1.00  0.00     0.000 OA
ATOM     27  CG2 VAL A   3     -19.867 -10.715  -5.422  1.00  0.00     0.037 A 
ATOM     28  CB  VAL A   3     -19.912 -11.363  -6.181  1.00  0.00     0.078 A 
ATOM     29  CG1 VAL A   3     -19.089 -11.571  -6.710  1.00  0.00     0.007 C 
BRANCH  24  30
ATOM     30  CA  GLY A   2     -22.441 -10.673  -4.497  1.00  0.00     0.704 A 
ATOM     31  N   GLY A   2     -22.362 -10.257  -3.591  1.00  0.00    -0.059 N 
ATOM     32  C   VAL A   1     -23.243 -10.001  -2.952  1.00  0.00     0.333 C 
ATOM     33  H   GLY A   2     -21.852 -10.386  -3.918  1.00  0.00     0.293 HD
ATOM     34  O   VAL A   1     -24.145 -10.208  -3.329  1.00  0.00    -0.265 OA
BRANCH  32  35
ATOM     35  CA  VAL A   1     -23.164  -9.585  -2.045  1.00  0.00     0.334 C 
BRANCH  35  36
ATOM     36  N   VAL A   1     -22.715 -10.084  -1.304  1.00  0.00     0.091 NA
ATOM     37  H1  VAL A   1     -22.549  -9.787  -0.786  1.00  0.00     0.313 HD
ATOM     38  H2  VAL A   1     -22.993  -9.775  -1.764  1.00  0.00     0.295 HD
ENDBRANCH  35  36
BRANCH  35  39
ATOM     39  CB  VAL A   1     -23.533  -8.671  -1.881  1.00  0.00     0.003 C 
ATOM     40  CG1 VAL A   1     -24.480  -8.561  -1.579  1.00  0.00     0.038 C 
ATOM     41  CG2 VAL A   1     -22.955  -7.866  -2.018  1.00  0.00     0.007 C 
ENDBRANCH  35  39
ENDBRANCH  32  35
ENDBRANCH  24  30
ENDBRANCH  10  22
ENDBRANCH   2   4
ENDBRANCH   1   2
BRANCH   1  42
ATOM     42  CB  TYR A   5     -18.939 -18.498 -13.299  1.00  0.00     0.152 C 
BRANCH  42  43
ATOM     43  CG  TYR A   5     -18.762 -17.532 -13.110  1.00  0.00    -0.014 A 
ATOM     44  CD1 TYR A   5     -18.275 -17.266 -12.279  1.00  0.00    -0.015 A 
ATOM     45  CE1 TYR A   5     -18.098 -16.300 -12.090  1.00  0.00     0.033 A 
ATOM     46  CZ  TYR A   5     -18.408 -15.600 -12.734  1.00  0.00     0.065 A 
ATOM     47  CE2 TYR A   5     -18.895 -15.866 -13.566  1.00  0.00     0.033 A 
ATOM     48  CD2 TYR A   5     -19.072 -16.832 -13.754  1.00  0.00    -0.015 A 
BRANCH  46  49
ATOM     49  OH  TYR A   5     -18.231 -14.634 -12.546  1.00  0.00    -0.361 OA
ATOM     50  HH  TYR A   5     -18.695 -14.224 -12.567  1.00  0.00     0.217 HD
ENDBRANCH  46  49
ENDBRANCH  42  43
ENDBRANCH   1  42
BRANCH   1  51
ATOM     51  C   TYR A   5     -19.719 -19.923 -12.699  1.00  0.00     0.162 A 
ATOM     52  O   TYR A   5     -19.787 -20.635 -12.000  1.00  0.00    -0.293 OA
ATOM     53  N   GLY A   6     -20.321 -20.077 -13.629  1.00  0.00    -0.068 N 
ATOM     54  H   GLY A   6     -19.958 -19.582 -13.534  1.00  0.00     0.346 HD
BRANCH  53  55
ATOM     55  CA  GLY A   6     -20.905 -20.874 -13.782  1.00  0.00     0.841 C 
BRANCH  55  56
ATOM     56  C   GLY A   6     -21.595 -20.856 -14.505  1.00  0.00     0.173 A 
ATOM     57  O   GLY A   6     -21.316 -20.761 -15.461  1.00  0.00    -0.293 OA
ATOM     58  N   MET A   7     -22.693 -20.938 -14.311  1.00  0.00    -0.069 N 
ATOM     59  H   MET A   7     -22.265 -20.949 -13.863  1.00  0.00     0.346 HD
BRANCH  58  60
ATOM     60  CA  MET A   7     -23.383 -20.920 -15.034  1.00  0.00     0.591 C 
BRANCH  60  61
ATOM     61  CB  MET A   7     -23.620 -21.761 -15.520  1.00  0.00     0.165 A 
ATOM     62  CG  MET A   7     -23.947 -22.558 -15.011  1.00  0.00     0.085 A 
ATOM     63  SD  MET A   7     -24.183 -23.399 -15.498  1.00  0.00    -0.324 SA
ATOM     64  CE  MET A   7     -24.510 -24.195 -14.989  1.00  0.00     0.189 C 
ENDBRANCH  60  61
BRANCH  60  65
ATOM     65  C   MET A   7     -23.837 -20.061 -15.272  1.00  0.00     0.259 A 
ATOM     66  O   MET A   7     -24.307 -19.970 -16.149  1.00  0.00    -0.277 OA
ATOM     67  N   ASP A   8     -23.854 -19.167 -14.600  1.00  0.00    -0.064 N 
ATOM     68  H   ASP A   8     -23.573 -19.700 -14.453  1.00  0.00     0.363 HD
BRANCH  67  69
ATOM     69  CA  ASP A   8     -24.308 -18.308 -14.837  1.00  0.00     0.521 A 
ATOM     70  C   ASP A   8     -23.764 -17.486 -15.005  1.00  0.00    -0.014 A 
ATOM     71  O   ASP A   8     -22.767 -17.522 -14.936  1.00  0.00     0.000 OA
ATOM     72  N   VAL A   9     -24.211 -16.497 -15.274  1.00  0.00     0.000 N 
ATOM     73  CG2 VAL A   9     -22.217 -16.570 -15.136  1.00  0.00     0.044 A 
ATOM     74  CB  VAL A   9     -22.670 -15.711 -15.373  1.00  0.00     0.015 A 
ATOM     75  CA  VAL A   9     -23.667 -15.674 -15.442  1.00  0.00     0.066 A 
ATOM     76  CG1 VAL A   9     -22.127 -14.888 -15.541  1.00  0.00     0.034 C 
ATOM     77  H   VAL A   9     -24.548 -17.007 -15.170  1.00  0.00     0.000 HD
ATOM     78  OD2 ASP A   8     -25.215 -16.590 -15.312  1.00  0.00     0.000 OA
ATOM     79  CG  ASP A   8     -25.758 -17.413 -15.144  1.00  0.00     0.067 A 
ATOM     80  CB  ASP A   8     -25.305 -18.272 -14.906  1.00  0.00     0.213 A 
BRANCH  75  81
ATOM     81  C   VAL A   9     -24.121 -14.815 -15.679  1.00  0.00     0.139 C 
ATOM     82  OXT VAL A   9     -24.416 -14.649 -16.620  1.00  0.00    -0.650 OA
BRANCH  81  83
ATOM     83  O   VAL A   9     -24.279 -14.122 -14.976  1.00  0.00    -0.776 OA
ATOM     84  H   VAL A   9     -24.511 -14.287 -14.425  1.00  0.00     0.167 HD
ENDBRANCH  81  83
ENDBRANCH  75  81
BRANCH  79  85
ATOM     85  OD1 ASP A   8     -26.755 -17.376 -15.213  1.00  0.00    -0.392 OA
ATOM     86  HD1 ASP A   8     -27.104 -17.441 -14.704  1.00  0.00     0.210 HD
ENDBRANCH  79  85
ENDBRANCH  67  69
ENDBRANCH  60  65
ENDBRANCH  58  60
ENDBRANCH  55  56
ENDBRANCH  53  55
ENDBRANCH   1  51
TORSDOF 20
ENDMDL
MODEL 8
REMARK VINA RESULT:     -14.5      2.569     10.555
REMARK  20 active torsions:
REMARK  status: ('A' for Active; 'I' for Inactive)
REMARK    1  A    between atoms: N_3  and  CA_4 
REMARK    2  A    between atoms: CA_4  and  CB_5 
REMARK    3  A    between atoms: CA_4  and  C_6 
REMARK    4  A    between atoms: CA_12  and  C_14 
REMARK       I    between atoms: N_19  and  C_14 
REMARK    5  A    between atoms: N_41  and  C_24 
REMARK       I    between atoms: N_35  and  C_77 
REMARK    6  A    between atoms: C_36  and  CA_37 
REMARK    7  A    between atoms: OH_40  and  CZ_50 
REMARK    8  A    between atoms: N_41  and  CA_42 
REMARK    9  A    between atoms: CA_42  and  CB_43 
REMARK   10  A    between atoms: CA_42  and  C_44 
REMARK   11  A    between atoms: CB_43  and  CG_45 
REMARK   12  A    between atoms: OD1_54  and  CG_60 
REMARK   13  A    between atoms: N_56  and  CA_57 
REMARK   14  A    between atoms: O_63  and  C_70 
REMARK   15  A    between atoms: CA_67  and  C_70 
REMARK   16  A    between atoms: N_74  and  CA_75 
REMARK   17  A    between atoms: CA_75  and  CB_76 
REMARK   18  A    between atoms: CA_75  and  C_77 
REMARK   19  A    between atoms: N_83  and  CA_84 
REMARK   20  A    between atoms: CA_84  and  C_85 
ROOT
ATOM      1  CA  TYR A   5     -18.991 -19.067 -11.828  1.00  0.00     0.263 C 
ENDROOT
BRANCH   1   2
ATOM      2  N   TYR A   5     -18.298 -18.470 -11.423  1.00  0.00    -0.371 N 
ATOM      3  H   TYR A   5     -17.869 -18.100 -11.172  1.00  0.00     0.161 HD
BRANCH   2   4
ATOM      4  C   TRP A   4     -22.252 -12.685  -9.244  1.00  0.00     0.087 A 
ATOM      5  O   TRP A   4     -22.935 -11.956  -9.207  1.00  0.00    -0.297 OA
ATOM      6  CA  TRP A   4     -21.584 -12.783  -8.505  1.00  0.00     0.130 A 
ATOM      7  N   TRP A   4     -21.600 -12.151  -7.730  1.00  0.00    -0.348 N 
ATOM      8  CB  TRP A   4     -20.901 -13.512  -8.542  1.00  0.00     0.084 A 
ATOM      9  H   TRP A   4     -22.014 -12.091  -8.189  1.00  0.00     0.191 HD
ATOM     10  C   VAL A   3     -20.882 -12.207  -6.875  1.00  0.00     0.244 C 
ATOM     11  O   VAL A   3     -20.199 -12.936  -6.911  1.00  0.00    -0.272 OA
ATOM     12  CG  TRP A   4     -20.886 -14.144  -9.317  1.00  0.00     0.006 A 
ATOM     13  CD2 TRP A   4     -21.504 -14.129 -10.095  1.00  0.00     0.032 A 
ATOM     14  CD1 TRP A   4     -20.249 -14.897  -9.444  1.00  0.00     0.106 A 
ATOM     15  CE2 TRP A   4     -21.247 -14.877 -10.706  1.00  0.00     0.054 A 
ATOM     16  CE3 TRP A   4     -22.271 -13.531 -10.332  1.00  0.00     0.238 A 
ATOM     17  CZ3 TRP A   4     -22.779 -13.682 -11.178  1.00  0.00    -0.012 A 
ATOM     18  CH2 TRP A   4     -22.523 -14.431 -11.789  1.00  0.00    -0.005 A 
ATOM     19  CZ2 TRP A   4     -21.756 -15.029 -11.553  1.00  0.00     0.004 A 
ATOM     20  NE1 TRP A   4     -20.472 -15.349 -10.299  1.00  0.00    -0.403 N 
ATOM     21  HE1 TRP A   4     -20.179 -15.840 -10.540  1.00  0.00     0.154 HD
BRANCH  10  22
ATOM     22  CA  VAL A   3     -20.898 -11.575  -6.100  1.00  0.00     0.571 A 
ATOM     23  N   VAL A   3     -21.739 -11.447  -5.577  1.00  0.00    -0.105 N 
ATOM     24  C   GLY A   2     -21.821 -10.756  -4.702  1.00  0.00     0.146 A 
ATOM     25  H   VAL A   3     -21.730 -11.838  -6.057  1.00  0.00     0.261 HD
ATOM     26  O   GLY A   2     -20.995 -10.253  -4.450  1.00  0.00     0.000 OA
ATOM     27  CG2 VAL A   3     -20.086 -10.440  -5.074  1.00  0.00     0.037 A 
ATOM     28  CB  VAL A   3     -20.071 -11.071  -5.849  1.00  0.00     0.078 A 
ATOM     29  CG1 VAL A   3     -19.229 -11.200  -6.372  1.00  0.00     0.007 C 
BRANCH  24  30
ATOM     30  CA  GLY A   2     -22.664 -10.628  -4.177  1.00  0.00     0.704 A 
ATOM     31  N   GLY A   2     -22.772  -9.824  -3.592  1.00  0.00    -0.059 N 
ATOM     32  C   VAL A   1     -23.687  -9.624  -2.983  1.00  0.00     0.333 C 
ATOM     33  H   GLY A   2     -22.250  -9.903  -3.917  1.00  0.00     0.293 HD
ATOM     34  O   VAL A   1     -24.422 -10.299  -3.044  1.00  0.00    -0.265 OA
BRANCH  32  35
ATOM     35  CA  VAL A   1     -23.795  -8.820  -2.398  1.00  0.00     0.334 C 
BRANCH  35  36
ATOM     36  N   VAL A   1     -24.557  -8.190  -2.549  1.00  0.00     0.091 NA
ATOM     37  H1  VAL A   1     -24.468  -7.666  -2.868  1.00  0.00     0.313 HD
ATOM     38  H2  VAL A   1     -24.084  -8.580  -2.455  1.00  0.00     0.295 HD
ENDBRANCH  35  36
BRANCH  35  39
ATOM     39  CB  VAL A   1     -23.140  -8.646  -1.662  1.00  0.00     0.003 C 
ATOM     40  CG1 VAL A   1     -22.445  -7.935  -1.769  1.00  0.00     0.038 C 
ATOM     41  CG2 VAL A   1     -23.181  -9.182  -0.819  1.00  0.00     0.007 C 
ENDBRANCH  35  39
ENDBRANCH  32  35
ENDBRANCH  24  30
ENDBRANCH  10  22
ENDBRANCH   2   4
ENDBRANCH   1   2
BRANCH   1  42
ATOM     42  CB  TYR A   5     -19.311 -19.872 -11.328  1.00  0.00     0.152 C 
BRANCH  42  43
ATOM     43  CG  TYR A   5     -19.210 -19.917 -10.335  1.00  0.00    -0.014 A 
ATOM     44  CD1 TYR A   5     -18.948 -20.777  -9.897  1.00  0.00    -0.015 A 
ATOM     45  CE1 TYR A   5     -18.848 -20.822  -8.903  1.00  0.00     0.033 A 
ATOM     46  CZ  TYR A   5     -19.009 -20.006  -8.347  1.00  0.00     0.065 A 
ATOM     47  CE2 TYR A   5     -19.271 -19.146  -8.785  1.00  0.00     0.033 A 
ATOM     48  CD2 TYR A   5     -19.371 -19.101  -9.778  1.00  0.00    -0.015 A 
BRANCH  46  49
ATOM     49  OH  TYR A   5     -18.908 -20.051  -7.353  1.00  0.00    -0.361 OA
ATOM     50  HH  TYR A   5     -18.462 -20.401  -7.102  1.00  0.00     0.217 HD
ENDBRANCH  46  49
ENDBRANCH  42  43
ENDBRANCH   1  42
BRANCH   1  51
ATOM     51  C   TYR A   5     -19.364 -18.858 -12.732  1.00  0.00     0.162 A 
ATOM     52  O   TYR A   5     -19.001 -19.320 -13.541  1.00  0.00    -0.293 OA
ATOM     53  N   GLY A   6     -20.186 -18.119 -12.904  1.00  0.00    -0.068 N 
ATOM     54  H   GLY A   6     -19.954 -18.249 -12.343  1.00  0.00     0.346 HD
BRANCH  53  55
ATOM     55  CA  GLY A   6     -20.559 -17.911 -13.808  1.00  0.00     0.841 C 
BRANCH  55  56
ATOM     56  C   GLY A   6     -21.543 -17.975 -13.969  1.00  0.00     0.173 A 
ATOM     57  O   GLY A   6     -22.185 -17.591 -13.306  1.00  0.00    -0.293 OA
ATOM     58  N   MET A   7     -21.989 -18.464 -14.871  1.00  0.00    -0.069 N 
ATOM     59  H   MET A   7     -21.378 -18.424 -14.770  1.00  0.00     0.346 HD
BRANCH  58  60
ATOM     60  CA  MET A   7     -22.974 -18.529 -15.032  1.00  0.00     0.591 C 
BRANCH  60  61
ATOM     61  CB  MET A   7     -23.477 -19.340 -14.734  1.00  0.00     0.165 A 
ATOM     62  CG  MET A   7     -23.255 -20.235 -15.119  1.00  0.00     0.085 A 
ATOM     63  SD  MET A   7     -23.759 -21.046 -14.821  1.00  0.00    -0.324 SA
ATOM     64  CE  MET A   7     -23.536 -21.942 -15.206  1.00  0.00     0.189 C 
ENDBRANCH  60  61
BRANCH  60  65
ATOM     65  C   MET A   7     -23.455 -17.782 -15.492  1.00  0.00     0.259 A 
ATOM     66  O   MET A   7     -23.597 -17.813 -16.481  1.00  0.00    -0.277 OA
ATOM     67  N   ASP A   8     -23.857 -16.887 -14.956  1.00  0.00    -0.064 N 
ATOM     68  H   ASP A   8     -23.559 -17.350 -14.672  1.00  0.00     0.363 HD
BRANCH  67  69
ATOM     69  CA  ASP A   8     -24.338 -16.140 -15.416  1.00  0.00     0.521 A 
ATOM     70  C   ASP A   8     -23.835 -15.328 -15.711  1.00  0.00    -0.014 A 
ATOM     71  O   ASP A   8     -22.851 -15.262 -15.547  1.00  0.00     0.000 OA
ATOM     72  N   VAL A   9     -24.315 -14.461 -16.229  1.00  0.00     0.000 N 
ATOM     73  CG2 VAL A   9     -22.346 -14.329 -15.901  1.00  0.00     0.044 A 
ATOM     74  CB  VAL A   9     -22.827 -13.583 -16.360  1.00  0.00     0.015 A 
ATOM     75  CA  VAL A   9     -23.812 -13.649 -16.524  1.00  0.00     0.066 A 
ATOM     76  CG1 VAL A   9     -22.324 -12.771 -16.655  1.00  0.00     0.034 C 
ATOM     77  H   VAL A   9     -24.627 -14.964 -16.046  1.00  0.00     0.000 HD
ATOM     78  OD2 ASP A   8     -25.301 -14.647 -16.335  1.00  0.00     0.000 OA
ATOM     79  CG  ASP A   8     -25.804 -15.459 -16.040  1.00  0.00     0.067 A 
ATOM     80  CB  ASP A   8     -25.322 -16.206 -15.580  1.00  0.00     0.213 A 
BRANCH  75  81
ATOM     81  C   VAL A   9     -24.293 -12.902 -16.984  1.00  0.00     0.139 C 
ATOM     82  OXT VAL A   9     -24.737 -12.187 -16.444  1.00  0.00    -0.650 OA
BRANCH  81  83
ATOM     83  O   VAL A   9     -24.329 -12.871 -17.983  1.00  0.00    -0.776 OA
ATOM     84  H   VAL A   9     -24.861 -12.731 -18.269  1.00  0.00     0.167 HD
ENDBRANCH  81  83
ENDBRANCH  75  81
BRANCH  79  85
ATOM     85  OD1 ASP A   8     -26.788 -15.525 -16.204  1.00  0.00    -0.392 OA
ATOM     86  HD1 ASP A   8     -27.176 -15.611 -15.728  1.00  0.00     0.210 HD
ENDBRANCH  79  85
ENDBRANCH  67  69
ENDBRANCH  60  65
ENDBRANCH  58  60
ENDBRANCH  55  56
ENDBRANCH  53  55
ENDBRANCH   1  51
TORSDOF 20
ENDMDL
MODEL 9
REMARK VINA RESULT:     -14.4      1.793      3.132
REMARK  20 active torsions:
REMARK  status: ('A' for Active; 'I' for Inactive)
REMARK    1  A    between atoms: N_3  and  CA_4 
REMARK    2  A    between atoms: CA_4  and  CB_5 
REMARK    3  A    between atoms: CA_4  and  C_6 
REMARK    4  A    between atoms: CA_12  and  C_14 
REMARK       I    between atoms: N_19  and  C_14 
REMARK    5  A    between atoms: N_41  and  C_24 
REMARK       I    between atoms: N_35  and  C_77 
REMARK    6  A    between atoms: C_36  and  CA_37 
REMARK    7  A    between atoms: OH_40  and  CZ_50 
REMARK    8  A    between atoms: N_41  and  CA_42 
REMARK    9  A    between atoms: CA_42  and  CB_43 
REMARK   10  A    between atoms: CA_42  and  C_44 
REMARK   11  A    between atoms: CB_43  and  CG_45 
REMARK   12  A    between atoms: OD1_54  and  CG_60 
REMARK   13  A    between atoms: N_56  and  CA_57 
REMARK   14  A    between atoms: O_63  and  C_70 
REMARK   15  A    between atoms: CA_67  and  C_70 
REMARK   16  A    between atoms: N_74  and  CA_75 
REMARK   17  A    between atoms: CA_75  and  CB_76 
REMARK   18  A    between atoms: CA_75  and  C_77 
REMARK   19  A    between atoms: N_83  and  CA_84 
REMARK   20  A    between atoms: CA_84  and  C_85 
ROOT
ATOM      1  CA  TYR A   5     -20.868 -12.936  -7.832  1.00  0.00     0.263 C 
ENDROOT
BRANCH   1   2
ATOM      2  N   TYR A   5     -21.230 -12.182  -8.381  1.00  0.00    -0.371 N 
ATOM      3  H   TYR A   5     -21.454 -11.715  -8.721  1.00  0.00     0.161 HD
BRANCH   2   4
ATOM      4  C   TRP A   4     -22.037 -15.264 -14.991  1.00  0.00     0.087 A 
ATOM      5  O   TRP A   4     -21.966 -15.454 -15.970  1.00  0.00    -0.297 OA
ATOM      6  CA  TRP A   4     -22.588 -15.860 -14.404  1.00  0.00     0.130 A 
ATOM      7  N   TRP A   4     -23.067 -16.645 -14.798  1.00  0.00    -0.348 N 
ATOM      8  CB  TRP A   4     -22.659 -15.670 -13.425  1.00  0.00     0.084 A 
ATOM      9  H   TRP A   4     -22.725 -16.275 -15.161  1.00  0.00     0.191 HD
ATOM     10  C   VAL A   3     -23.696 -17.347 -14.197  1.00  0.00     0.244 C 
ATOM     11  O   VAL A   3     -23.767 -17.157 -13.218  1.00  0.00    -0.272 OA
ATOM     12  CG  TRP A   4     -22.180 -14.884 -13.032  1.00  0.00     0.006 A 
ATOM     13  CD2 TRP A   4     -21.612 -14.239 -13.530  1.00  0.00     0.032 A 
ATOM     14  CD1 TRP A   4     -22.189 -14.614 -12.075  1.00  0.00     0.106 A 
ATOM     15  CE2 TRP A   4     -21.269 -13.565 -12.875  1.00  0.00     0.054 A 
ATOM     16  CE3 TRP A   4     -21.360 -14.171 -14.495  1.00  0.00     0.238 A 
ATOM     17  CZ3 TRP A   4     -20.764 -13.431 -14.806  1.00  0.00    -0.012 A 
ATOM     18  CH2 TRP A   4     -20.421 -12.758 -14.152  1.00  0.00    -0.005 A 
ATOM     19  CZ2 TRP A   4     -20.672 -12.824 -13.186  1.00  0.00     0.004 A 
ATOM     20  NE1 TRP A   4     -21.627 -13.801 -11.979  1.00  0.00    -0.403 N 
ATOM     21  HE1 TRP A   4     -21.519 -13.493 -11.451  1.00  0.00     0.154 HD
BRANCH  10  22
ATOM     22  CA  VAL A   3     -24.175 -18.132 -14.590  1.00  0.00     0.571 A 
ATOM     23  N   VAL A   3     -23.733 -19.028 -14.608  1.00  0.00    -0.105 N 
ATOM     24  C   GLY A   2     -24.215 -19.943 -15.033  1.00  0.00     0.146 A 
ATOM     25  H   VAL A   3     -23.437 -18.542 -14.365  1.00  0.00     0.261 HD
ATOM     26  O   GLY A   2     -25.135 -19.831 -15.408  1.00  0.00     0.000 OA
ATOM     27  CG2 VAL A   3     -25.574 -18.804 -15.358  1.00  0.00     0.037 A 
ATOM     28  CB  VAL A   3     -25.095 -18.020 -14.965  1.00  0.00     0.078 A 
ATOM     29  CG1 VAL A   3     -25.537 -17.123 -14.947  1.00  0.00     0.007 C 
BRANCH  24  30
ATOM     30  CA  GLY A   2     -23.773 -20.841 -15.052  1.00  0.00     0.704 A 
ATOM     31  N   GLY A   2     -24.303 -21.654 -15.293  1.00  0.00    -0.059 N 
ATOM     32  C   VAL A   1     -23.868 -22.683 -15.331  1.00  0.00     0.333 C 
ATOM     33  H   GLY A   2     -24.577 -21.098 -15.282  1.00  0.00     0.293 HD
ATOM     34  O   VAL A   1     -22.897 -22.767 -15.109  1.00  0.00    -0.265 OA
BRANCH  32  35
ATOM     35  CA  VAL A   1     -24.398 -23.497 -15.573  1.00  0.00     0.334 C 
BRANCH  35  36
ATOM     36  N   VAL A   1     -24.158 -24.384 -15.180  1.00  0.00     0.091 NA
ATOM     37  H1  VAL A   1     -24.546 -24.665 -14.786  1.00  0.00     0.313 HD
ATOM     38  H2  VAL A   1     -24.307 -23.834 -15.423  1.00  0.00     0.295 HD
ENDBRANCH  35  36
BRANCH  35  39
ATOM     39  CB  VAL A   1     -25.168 -23.422 -16.207  1.00  0.00     0.003 C 
ATOM     40  CG1 VAL A   1     -26.104 -23.392 -15.855  1.00  0.00     0.038 C 
ATOM     41  CG2 VAL A   1     -25.002 -23.377 -17.192  1.00  0.00     0.007 C 
ENDBRANCH  35  39
ENDBRANCH  32  35
ENDBRANCH  24  30
ENDBRANCH  10  22
ENDBRANCH   2   4
ENDBRANCH   1   2
BRANCH   1  42
ATOM     42  CB  TYR A   5     -20.220 -12.751  -7.094  1.00  0.00     0.152 C 
BRANCH  42  43
ATOM     43  CG  TYR A   5     -20.367 -11.973  -6.483  1.00  0.00    -0.014 A 
ATOM     44  CD1 TYR A   5     -19.635 -11.308  -6.334  1.00  0.00    -0.015 A 
ATOM     45  CE1 TYR A   5     -19.782 -10.530  -5.723  1.00  0.00     0.033 A 
ATOM     46  CZ  TYR A   5     -20.661 -10.418  -5.260  1.00  0.00     0.065 A 
ATOM     47  CE2 TYR A   5     -21.393 -11.083  -5.408  1.00  0.00     0.033 A 
ATOM     48  CD2 TYR A   5     -21.246 -11.861  -6.019  1.00  0.00    -0.015 A 
BRANCH  46  49
ATOM     49  OH  TYR A   5     -20.808  -9.640  -4.649  1.00  0.00    -0.361 OA
ATOM     50  HH  TYR A   5     -21.208  -9.194  -4.806  1.00  0.00     0.217 HD
ENDBRANCH  46  49
ENDBRANCH  42  43
ENDBRANCH   1  42
BRANCH   1  51
ATOM     51  C   TYR A   5     -21.155 -13.875  -8.022  1.00  0.00     0.162 A 
ATOM     52  O   TYR A   5     -22.101 -14.066  -8.283  1.00  0.00    -0.293 OA
ATOM     53  N   GLY A   6     -20.466 -14.753  -7.960  1.00  0.00    -0.068 N 
ATOM     54  H   GLY A   6     -20.288 -14.171  -7.843  1.00  0.00     0.346 HD
BRANCH  53  55
ATOM     55  CA  GLY A   6     -20.753 -15.692  -8.150  1.00  0.00     0.841 C 
BRANCH  55  56
ATOM     56  C   GLY A   6     -20.090 -16.358  -8.492  1.00  0.00     0.173 A 
ATOM     57  O   GLY A   6     -19.113 -16.143  -8.480  1.00  0.00    -0.293 OA
ATOM     58  N   MET A   7     -20.376 -17.359  -8.900  1.00  0.00    -0.069 N 
ATOM     59  H   MET A   7     -20.787 -16.946  -8.688  1.00  0.00     0.346 HD
BRANCH  58  60
ATOM     60  CA  MET A   7     -19.713 -18.025  -9.242  1.00  0.00     0.591 C 
BRANCH  60  61
ATOM     61  CB  MET A   7     -19.273 -18.662  -8.610  1.00  0.00     0.165 A 
ATOM     62  CG  MET A   7     -19.771 -19.464  -8.280  1.00  0.00     0.085 A 
ATOM     63  SD  MET A   7     -19.330 -20.101  -7.648  1.00  0.00    -0.324 SA
ATOM     64  CE  MET A   7     -19.829 -20.903  -7.318  1.00  0.00     0.189 C 
ENDBRANCH  60  61
BRANCH  60  65
ATOM     65  C   MET A   7     -19.490 -18.053 -10.217  1.00  0.00     0.259 A 
ATOM     66  O   MET A   7     -18.715 -18.598 -10.537  1.00  0.00    -0.277 OA
ATOM     67  N   ASP A   8     -20.069 -17.500 -10.997  1.00  0.00    -0.064 N 
ATOM     68  H   ASP A   8     -20.207 -17.482 -10.393  1.00  0.00     0.363 HD
BRANCH  67  69
ATOM     69  CA  ASP A   8     -19.846 -17.528 -11.972  1.00  0.00     0.521 A 
ATOM     70  C   ASP A   8     -19.254 -16.828 -12.370  1.00  0.00    -0.014 A 
ATOM     71  O   ASP A   8     -18.884 -16.099 -11.794  1.00  0.00     0.000 OA
ATOM     72  N   VAL A   9     -18.968 -16.804 -13.450  1.00  0.00     0.000 N 
ATOM     73  CG2 VAL A   9     -18.229 -15.346 -12.298  1.00  0.00     0.044 A 
ATOM     74  CB  VAL A   9     -18.007 -15.375 -13.273  1.00  0.00     0.015 A 
ATOM     75  CA  VAL A   9     -18.376 -16.104 -13.849  1.00  0.00     0.066 A 
ATOM     76  CG1 VAL A   9     -17.414 -14.674 -13.671  1.00  0.00     0.034 C 
ATOM     77  H   VAL A   9     -19.335 -17.239 -13.203  1.00  0.00     0.000 HD
ATOM     78  OD2 ASP A   8     -19.401 -17.585 -13.920  1.00  0.00     0.000 OA
ATOM     79  CG  ASP A   8     -19.993 -18.286 -13.522  1.00  0.00     0.067 A 
ATOM     80  CB  ASP A   8     -20.215 -18.257 -12.548  1.00  0.00     0.213 A 
BRANCH  75  81
ATOM     81  C   VAL A   9     -18.153 -16.132 -14.823  1.00  0.00     0.139 C 
ATOM     82  OXT VAL A   9     -17.259 -16.465 -15.122  1.00  0.00    -0.650 OA
BRANCH  81  83
ATOM     83  O   VAL A   9     -18.825 -15.829 -15.499  1.00  0.00    -0.776 OA
ATOM     84  H   VAL A   9     -18.637 -15.560 -16.025  1.00  0.00     0.167 HD
ENDBRANCH  81  83
ENDBRANCH  75  81
BRANCH  79  85
ATOM     85  OD1 ASP A   8     -20.362 -19.015 -14.098  1.00  0.00    -0.392 OA
ATOM     86  HD1 ASP A   8     -20.402 -18.935 -14.712  1.00  0.00     0.210 HD
ENDBRANCH  79  85
ENDBRANCH  67  69
ENDBRANCH  60  65
ENDBRANCH  58  60
ENDBRANCH  55  56
ENDBRANCH  53  55
ENDBRANCH   1  51
TORSDOF 20
ENDMDL
