MODEL 1
REMARK VINA RESULT:      -9.7      0.000      0.000
REMARK  1 active torsions:
REMARK  status: ('A' for Active; 'I' for Inactive)
REMARK    1  A    between atoms: C_10  and  C_15 
ROOT
HETATM    1 CL   LIG     1     -18.395 -17.743 -10.440  1.00  0.00    -0.084 Cl
HETATM    2  N   LIG     1     -22.329 -13.738 -12.368  1.00  0.00    -0.300 N 
HETATM    3  N   LIG     1     -22.714 -13.281  -9.372  1.00  0.00    -0.282 NA
HETATM    4  N   LIG     1     -23.637 -12.571 -13.759  1.00  0.00    -0.245 NA
HETATM    5  C   LIG     1     -21.461 -14.742 -11.878  1.00  0.00     0.053 A 
HETATM    6  C   LIG     1     -22.739 -12.613 -11.682  1.00  0.00     0.056 A 
HETATM    7  C   LIG     1     -21.352 -15.026 -10.502  1.00  0.00     0.022 A 
HETATM    8  C   LIG     1     -22.258 -12.284 -10.321  1.00  0.00     0.208 C 
HETATM    9  C   LIG     1     -22.300 -14.499  -9.465  1.00  0.00     0.077 C 
HETATM   10  C   LIG     1     -22.873 -13.631 -13.629  1.00  0.00     0.107 A 
HETATM   11  C   LIG     1     -23.559 -11.933 -12.553  1.00  0.00     0.145 A 
HETATM   12  C   LIG     1     -20.663 -15.444 -12.797  1.00  0.00     0.032 A 
HETATM   13  C   LIG     1     -20.382 -15.948 -10.071  1.00  0.00     0.040 A 
HETATM   14  C   LIG     1     -22.795 -14.666 -14.687  1.00  0.00     0.091 C 
HETATM   15  C   LIG     1     -19.723 -16.374 -12.351  1.00  0.00     0.026 A 
HETATM   16  C   LIG     1     -19.572 -16.614 -10.990  1.00  0.00     0.035 A 
ENDROOT
BRANCH   9  17
HETATM   17  C   LIG     1     -22.847 -15.457  -8.458  1.00  0.00     0.032 A 
HETATM   18  C   LIG     1     -22.148 -15.691  -7.281  1.00  0.00     0.129 A 
HETATM   19  F   LIG     1     -20.987 -15.069  -7.033  1.00  0.00    -0.205 F 
HETATM   20  C   LIG     1     -22.662 -16.585  -6.343  1.00  0.00     0.043 A 
HETATM   21  C   LIG     1     -23.869 -17.238  -6.589  1.00  0.00     0.003 A 
HETATM   22  C   LIG     1     -24.563 -16.997  -7.775  1.00  0.00     0.001 A 
HETATM   23  C   LIG     1     -24.050 -16.102  -8.714  1.00  0.00     0.017 A 
ENDBRANCH   9  17
TORSDOF 1
ENDMDL
