MODEL 1
REMARK VINA RESULT:      -8.8      0.000      0.000
REMARK  1 active torsions:
REMARK  status: ('A' for Active; 'I' for Inactive)
REMARK    1  A    between atoms: C_7  and  C_21 
ROOT
HETATM    1  O   LIG     1     -21.533 -14.501  -6.676  1.00  0.00    -0.291 OA
HETATM    2  C   LIG     1     -23.265 -14.949 -14.105  1.00  0.00     0.000 C 
HETATM    3  C   LIG     1     -23.222 -13.640 -14.921  1.00  0.00     0.006 C 
HETATM    4  C   LIG     1     -22.207 -14.997 -12.997  1.00  0.00     0.001 C 
HETATM    5  C   LIG     1     -22.446 -13.803 -12.020  1.00  0.00     0.004 C 
HETATM    6  C   LIG     1     -21.430 -13.785 -10.814  1.00  0.00     0.016 C 
HETATM    7  C   LIG     1     -24.336 -13.948 -15.946  1.00  0.00     0.058 C 
HETATM    8  C   LIG     1     -23.532 -12.482 -13.963  1.00  0.00     0.000 C 
HETATM    9  C   LIG     1     -22.552 -12.450 -12.776  1.00  0.00     0.000 C 
HETATM   10  C   LIG     1     -23.265 -16.034 -15.176  1.00  0.00     0.000 C 
HETATM   11  C   LIG     1     -22.259 -16.323 -12.229  1.00  0.00     0.004 C 
HETATM   12  C   LIG     1     -24.122 -15.433 -16.306  1.00  0.00     0.007 C 
HETATM   13  C   LIG     1     -21.374 -15.177 -10.171  1.00  0.00    -0.042 C 
HETATM   14  C   LIG     1     -21.867 -13.385 -15.631  1.00  0.00     0.000 C 
HETATM   15  C   LIG     1     -21.228 -16.352 -11.109  1.00  0.00     0.022 C 
HETATM   16  C   LIG     1     -21.924 -12.737  -9.774  1.00  0.00     0.012 C 
HETATM   17  C   LIG     1     -20.002 -13.405 -11.268  1.00  0.00     0.004 C 
HETATM   18  C   LIG     1     -21.265 -12.874  -8.411  1.00  0.00     0.070 C 
HETATM   19  C   LIG     1     -21.424 -15.394  -8.845  1.00  0.00     0.029 C 
HETATM   20  C   LIG     1     -21.444 -14.271  -7.880  1.00  0.00     0.172 C 
ENDROOT
BRANCH   7  21
HETATM   21  C   LIG     1     -24.330 -13.062 -17.153  1.00  0.00     0.151 C 
HETATM   22  O   LIG     1     -24.618 -11.869 -17.078  1.00  0.00    -0.296 OA
HETATM   23  C   LIG     1     -23.952 -13.703 -18.460  1.00  0.00     0.072 C 
ENDBRANCH   7  21
TORSDOF 1
ENDMDL
