MODEL 1
REMARK VINA RESULT:      -9.1      0.000      0.000
REMARK  1 active torsions:
REMARK  status: ('A' for Active; 'I' for Inactive)
REMARK    1  A    between atoms: O_1  and  C_10 
ROOT
HETATM    1  O   LIG     1     -19.132 -21.878 -10.552  1.00  0.00    -0.293 OA
HETATM    2  C   LIG     1     -21.420 -15.082 -13.186  1.00  0.00     0.001 C 
HETATM    3  C   LIG     1     -21.438 -13.910 -12.187  1.00  0.00    -0.014 C 
HETATM    4  C   LIG     1     -20.280 -16.070 -12.918  1.00  0.00    -0.004 C 
HETATM    5  C   LIG     1     -20.449 -16.653 -11.480  1.00  0.00     0.002 C 
HETATM    6  C   LIG     1     -19.344 -17.720 -11.119  1.00  0.00    -0.016 C 
HETATM    7  C   LIG     1     -21.678 -14.485 -10.785  1.00  0.00     0.012 C 
HETATM    8  C   LIG     1     -20.614 -15.533 -10.415  1.00  0.00     0.007 C 
HETATM    9  C   LIG     1     -22.619 -13.106 -12.764  1.00  0.00     0.126 C 
HETATM   10  C   LIG     1     -21.504 -14.393 -14.545  1.00  0.00     0.008 C 
HETATM   11  C   LIG     1     -20.269 -17.205 -13.949  1.00  0.00     0.010 C 
HETATM   12  C   LIG     1     -22.404 -13.171 -14.290  1.00  0.00     0.033 C 
HETATM   13  C   LIG     1     -19.234 -18.749 -12.252  1.00  0.00    -0.068 C 
HETATM   14  C   LIG     1     -19.155 -18.202 -13.659  1.00  0.00     0.035 C 
HETATM   15  C   LIG     1     -20.151 -13.047 -12.180  1.00  0.00     0.018 C 
HETATM   16  C   LIG     1     -19.761 -18.428  -9.797  1.00  0.00     0.022 C 
HETATM   17  C   LIG     1     -17.955 -17.070 -10.922  1.00  0.00     0.020 C 
HETATM   18  C   LIG     1     -19.000 -19.717  -9.529  1.00  0.00     0.084 C 
HETATM   19  C   LIG     1     -19.182 -20.077 -12.059  1.00  0.00     0.053 C 
HETATM   20  C   LIG     1     -19.134 -20.657 -10.697  1.00  0.00     0.149 C 
ENDROOT
BRANCH   9  21
HETATM   21  O   LIG     1     -22.660 -11.772 -12.297  1.00  0.00    -0.395 OA
HETATM   22  H   LIG     1     -22.097 -11.221 -12.866  1.00  0.00     0.210 HD
ENDBRANCH   9  21
TORSDOF 1
ENDMDL
