MODEL 1
REMARK VINA RESULT:      -7.8      0.000      0.000
REMARK  14 active torsions:
REMARK  status: ('A' for Active; 'I' for Inactive)
REMARK    1  A    between atoms: O_1  and  C_14 
REMARK    2  A    between atoms: O_1  and  C_21 
REMARK    3  A    between atoms: O_4  and  C_17 
REMARK    4  A    between atoms: O_4  and  C_22 
REMARK    5  A    between atoms: N_6  and  C_8 
REMARK       I    between atoms: N_6  and  C_12 
REMARK    6  A    between atoms: N_7  and  C_10 
REMARK    7  A    between atoms: C_8  and  C_9 
REMARK    8  A    between atoms: C_8  and  C_14 
REMARK    9  A    between atoms: C_9  and  C_11 
REMARK   10  A    between atoms: C_10  and  C_12 
REMARK   11  A    between atoms: C_10  and  C_13 
REMARK   12  A    between atoms: C_13  and  C_17 
REMARK   13  A    between atoms: C_21  and  C_23 
REMARK   14  A    between atoms: C_22  and  C_24 
ROOT
HETATM    1  O   LIG     1     -22.587 -16.447 -13.345  1.00  0.00    -0.271 OA
HETATM    2  N   LIG     1     -20.848 -16.251 -11.820  1.00  0.00    -0.345 N 
HETATM    3  C   LIG     1     -21.400 -16.574 -13.051  1.00  0.00     0.252 C 
HETATM    4  H   LIG     1     -19.856 -16.407 -11.663  1.00  0.00     0.163 HD
ENDROOT
BRANCH   2   5
HETATM    5  C   LIG     1     -21.619 -15.717 -10.721  1.00  0.00     0.188 C 
BRANCH   5   6
HETATM    6  C   LIG     1     -21.178 -16.326  -9.382  1.00  0.00     0.074 C 
BRANCH   6   7
HETATM    7  C   LIG     1     -22.303 -16.596  -8.409  1.00  0.00    -0.056 A 
HETATM    8  C   LIG     1     -22.046 -17.266  -7.212  1.00  0.00     0.007 A 
HETATM    9  C   LIG     1     -23.085 -17.515  -6.316  1.00  0.00     0.001 A 
HETATM   10  C   LIG     1     -24.380 -17.095  -6.615  1.00  0.00     0.000 A 
HETATM   11  C   LIG     1     -24.638 -16.424  -7.810  1.00  0.00     0.001 A 
HETATM   12  C   LIG     1     -23.599 -16.175  -8.707  1.00  0.00     0.007 A 
ENDBRANCH   6   7
ENDBRANCH   5   6
BRANCH   5  13
HETATM   13  C   LIG     1     -21.602 -14.193 -10.687  1.00  0.00     0.282 C 
HETATM   14  O   LIG     1     -22.161 -13.507 -11.536  1.00  0.00    -0.263 OA
BRANCH  13  15
HETATM   15  O   LIG     1     -20.890 -13.711  -9.630  1.00  0.00    -0.316 OA
BRANCH  15  16
HETATM   16  C   LIG     1     -21.604 -12.840  -8.746  1.00  0.00     0.205 C 
BRANCH  16  17
HETATM   17  C   LIG     1     -21.253 -13.193  -7.339  1.00  0.00    -0.011 C 
HETATM   18  C   LIG     1     -20.831 -12.308  -6.430  1.00  0.00     0.009 C 
ENDBRANCH  16  17
ENDBRANCH  15  16
ENDBRANCH  13  15
ENDBRANCH   5  13
ENDBRANCH   2   5
BRANCH   3  19
HETATM   19  C   LIG     1     -20.366 -17.147 -14.016  1.00  0.00     0.318 C 
BRANCH  19  20
HETATM   20  N   LIG     1     -20.109 -16.119 -15.025  1.00  0.00     0.092 N 
HETATM   21  H   LIG     1     -19.118 -16.113 -15.263  1.00  0.00     0.313 HD
HETATM   22  H   LIG     1     -20.604 -16.355 -15.885  1.00  0.00     0.313 HD
ENDBRANCH  19  20
BRANCH  19  23
HETATM   23  C   LIG     1     -19.074 -17.476 -13.267  1.00  0.00     0.156 C 
BRANCH  23  24
HETATM   24  C   LIG     1     -19.168 -18.824 -12.593  1.00  0.00     0.261 C 
HETATM   25  O   LIG     1     -19.176 -19.889 -13.199  1.00  0.00    -0.265 OA
BRANCH  24  26
HETATM   26  O   LIG     1     -19.208 -18.669 -11.240  1.00  0.00    -0.318 OA
BRANCH  26  27
HETATM   27  C   LIG     1     -19.071 -19.871 -10.476  1.00  0.00     0.205 C 
BRANCH  27  28
HETATM   28  C   LIG     1     -18.860 -19.509  -9.043  1.00  0.00    -0.011 C 
HETATM   29  C   LIG     1     -19.422 -20.159  -8.019  1.00  0.00     0.009 C 
ENDBRANCH  27  28
ENDBRANCH  26  27
ENDBRANCH  24  26
ENDBRANCH  23  24
ENDBRANCH  19  23
ENDBRANCH   3  19
TORSDOF 14
ENDMDL
MODEL 2
REMARK VINA RESULT:      -7.7      2.712      5.954
REMARK  14 active torsions:
REMARK  status: ('A' for Active; 'I' for Inactive)
REMARK    1  A    between atoms: O_1  and  C_14 
REMARK    2  A    between atoms: O_1  and  C_21 
REMARK    3  A    between atoms: O_4  and  C_17 
REMARK    4  A    between atoms: O_4  and  C_22 
REMARK    5  A    between atoms: N_6  and  C_8 
REMARK       I    between atoms: N_6  and  C_12 
REMARK    6  A    between atoms: N_7  and  C_10 
REMARK    7  A    between atoms: C_8  and  C_9 
REMARK    8  A    between atoms: C_8  and  C_14 
REMARK    9  A    between atoms: C_9  and  C_11 
REMARK   10  A    between atoms: C_10  and  C_12 
REMARK   11  A    between atoms: C_10  and  C_13 
REMARK   12  A    between atoms: C_13  and  C_17 
REMARK   13  A    between atoms: C_21  and  C_23 
REMARK   14  A    between atoms: C_22  and  C_24 
ROOT
HETATM    1  O   LIG     1     -21.319 -12.879  -9.390  1.00  0.00    -0.271 OA
HETATM    2  N   LIG     1     -21.205 -14.537 -11.011  1.00  0.00    -0.345 N 
HETATM    3  C   LIG     1     -21.365 -13.233 -10.566  1.00  0.00     0.252 C 
HETATM    4  H   LIG     1     -21.277 -14.737 -12.005  1.00  0.00     0.163 HD
ENDROOT
BRANCH   2   5
HETATM    5  C   LIG     1     -20.960 -15.652 -10.124  1.00  0.00     0.188 C 
BRANCH   5   6
HETATM    6  C   LIG     1     -22.145 -16.630 -10.117  1.00  0.00     0.074 C 
BRANCH   6   7
HETATM    7  C   LIG     1     -22.776 -16.848  -8.760  1.00  0.00    -0.056 A 
HETATM    8  C   LIG     1     -24.090 -16.441  -8.528  1.00  0.00     0.007 A 
HETATM    9  C   LIG     1     -24.672 -16.642  -7.276  1.00  0.00     0.001 A 
HETATM   10  C   LIG     1     -23.940 -17.249  -6.257  1.00  0.00     0.000 A 
HETATM   11  C   LIG     1     -22.626 -17.656  -6.488  1.00  0.00     0.001 A 
HETATM   12  C   LIG     1     -22.044 -17.456  -7.740  1.00  0.00     0.007 A 
ENDBRANCH   6   7
ENDBRANCH   5   6
BRANCH   5  13
HETATM   13  C   LIG     1     -19.643 -16.355 -10.426  1.00  0.00     0.282 C 
HETATM   14  O   LIG     1     -19.186 -16.444 -11.561  1.00  0.00    -0.263 OA
BRANCH  13  15
HETATM   15  O   LIG     1     -19.066 -16.870  -9.304  1.00  0.00    -0.316 OA
BRANCH  15  16
HETATM   16  C   LIG     1     -18.304 -18.067  -9.491  1.00  0.00     0.205 C 
BRANCH  16  17
HETATM   17  C   LIG     1     -19.189 -19.243  -9.249  1.00  0.00    -0.011 C 
HETATM   18  C   LIG     1     -19.059 -20.076  -8.211  1.00  0.00     0.009 C 
ENDBRANCH  16  17
ENDBRANCH  15  16
ENDBRANCH  13  15
ENDBRANCH   5  13
ENDBRANCH   2   5
BRANCH   3  19
HETATM   19  C   LIG     1     -21.643 -12.262 -11.712  1.00  0.00     0.318 C 
BRANCH  19  20
HETATM   20  N   LIG     1     -20.661 -12.547 -12.759  1.00  0.00     0.092 N 
HETATM   21  H   LIG     1     -19.862 -13.035 -12.355  1.00  0.00     0.313 HD
HETATM   22  H   LIG     1     -21.067 -13.185 -13.442  1.00  0.00     0.313 HD
ENDBRANCH  19  20
BRANCH  19  23
HETATM   23  C   LIG     1     -23.057 -12.478 -12.252  1.00  0.00     0.156 C 
BRANCH  23  24
HETATM   24  C   LIG     1     -23.029 -13.247 -13.551  1.00  0.00     0.261 C 
HETATM   25  O   LIG     1     -22.766 -14.441 -13.630  1.00  0.00    -0.265 OA
BRANCH  24  26
HETATM   26  O   LIG     1     -23.365 -12.427 -14.587  1.00  0.00    -0.318 OA
BRANCH  26  27
HETATM   27  C   LIG     1     -24.436 -12.887 -15.415  1.00  0.00     0.205 C 
BRANCH  27  28
HETATM   28  C   LIG     1     -24.203 -12.412 -16.811  1.00  0.00    -0.011 C 
HETATM   29  C   LIG     1     -24.001 -13.225 -17.853  1.00  0.00     0.009 C 
ENDBRANCH  27  28
ENDBRANCH  26  27
ENDBRANCH  24  26
ENDBRANCH  23  24
ENDBRANCH  19  23
ENDBRANCH   3  19
TORSDOF 14
ENDMDL
MODEL 3
REMARK VINA RESULT:      -7.6      2.056      5.465
REMARK  14 active torsions:
REMARK  status: ('A' for Active; 'I' for Inactive)
REMARK    1  A    between atoms: O_1  and  C_14 
REMARK    2  A    between atoms: O_1  and  C_21 
REMARK    3  A    between atoms: O_4  and  C_17 
REMARK    4  A    between atoms: O_4  and  C_22 
REMARK    5  A    between atoms: N_6  and  C_8 
REMARK       I    between atoms: N_6  and  C_12 
REMARK    6  A    between atoms: N_7  and  C_10 
REMARK    7  A    between atoms: C_8  and  C_9 
REMARK    8  A    between atoms: C_8  and  C_14 
REMARK    9  A    between atoms: C_9  and  C_11 
REMARK   10  A    between atoms: C_10  and  C_12 
REMARK   11  A    between atoms: C_10  and  C_13 
REMARK   12  A    between atoms: C_13  and  C_17 
REMARK   13  A    between atoms: C_21  and  C_23 
REMARK   14  A    between atoms: C_22  and  C_24 
ROOT
HETATM    1  O   LIG     1     -19.541 -16.201 -13.392  1.00  0.00    -0.271 OA
HETATM    2  N   LIG     1     -19.547 -15.464 -11.191  1.00  0.00    -0.345 N 
HETATM    3  C   LIG     1     -19.394 -15.308 -12.561  1.00  0.00     0.252 C 
HETATM    4  H   LIG     1     -19.388 -14.669 -10.578  1.00  0.00     0.163 HD
ENDROOT
BRANCH   2   5
HETATM    5  C   LIG     1     -19.905 -16.720 -10.572  1.00  0.00     0.188 C 
BRANCH   5   6
HETATM    6  C   LIG     1     -18.701 -17.672 -10.504  1.00  0.00     0.074 C 
BRANCH   6   7
HETATM    7  C   LIG     1     -18.955 -19.053 -11.064  1.00  0.00    -0.056 A 
HETATM    8  C   LIG     1     -18.988 -20.156 -10.211  1.00  0.00     0.007 A 
HETATM    9  C   LIG     1     -19.222 -21.431 -10.728  1.00  0.00     0.001 A 
HETATM   10  C   LIG     1     -19.422 -21.602 -12.097  1.00  0.00     0.000 A 
HETATM   11  C   LIG     1     -19.389 -20.499 -12.950  1.00  0.00     0.001 A 
HETATM   12  C   LIG     1     -19.155 -19.225 -12.433  1.00  0.00     0.007 A 
ENDBRANCH   6   7
ENDBRANCH   5   6
BRANCH   5  13
HETATM   13  C   LIG     1     -20.559 -16.530  -9.209  1.00  0.00     0.282 C 
HETATM   14  O   LIG     1     -20.023 -15.904  -8.300  1.00  0.00    -0.263 OA
BRANCH  13  15
HETATM   15  O   LIG     1     -21.772 -17.145  -9.131  1.00  0.00    -0.316 OA
BRANCH  15  16
HETATM   16  C   LIG     1     -22.143 -17.626  -7.835  1.00  0.00     0.205 C 
BRANCH  16  17
HETATM   17  C   LIG     1     -23.484 -17.073  -7.484  1.00  0.00    -0.011 C 
HETATM   18  C   LIG     1     -24.185 -16.253  -8.274  1.00  0.00     0.009 C 
ENDBRANCH  16  17
ENDBRANCH  15  16
ENDBRANCH  13  15
ENDBRANCH   5  13
ENDBRANCH   2   5
BRANCH   3  19
HETATM   19  C   LIG     1     -18.984 -13.886 -12.938  1.00  0.00     0.318 C 
BRANCH  19  20
HETATM   20  N   LIG     1     -18.783 -13.870 -14.387  1.00  0.00     0.092 N 
HETATM   21  H   LIG     1     -17.873 -13.465 -14.602  1.00  0.00     0.313 HD
HETATM   22  H   LIG     1     -18.756 -14.827 -14.737  1.00  0.00     0.313 HD
ENDBRANCH  19  20
BRANCH  19  23
HETATM   23  C   LIG     1     -20.089 -12.902 -12.554  1.00  0.00     0.156 C 
BRANCH  23  24
HETATM   24  C   LIG     1     -21.405 -13.293 -13.183  1.00  0.00     0.261 C 
HETATM   25  O   LIG     1     -21.628 -13.238 -14.386  1.00  0.00    -0.265 OA
BRANCH  24  26
HETATM   26  O   LIG     1     -22.267 -13.737 -12.225  1.00  0.00    -0.318 OA
BRANCH  26  27
HETATM   27  C   LIG     1     -22.643 -12.771 -11.239  1.00  0.00     0.205 C 
BRANCH  27  28
HETATM   28  C   LIG     1     -22.640 -13.427  -9.898  1.00  0.00    -0.011 C 
HETATM   29  C   LIG     1     -21.926 -12.992  -8.854  1.00  0.00     0.009 C 
ENDBRANCH  27  28
ENDBRANCH  26  27
ENDBRANCH  24  26
ENDBRANCH  23  24
ENDBRANCH  19  23
ENDBRANCH   3  19
TORSDOF 14
ENDMDL
MODEL 4
REMARK VINA RESULT:      -7.6      2.861      6.216
REMARK  14 active torsions:
REMARK  status: ('A' for Active; 'I' for Inactive)
REMARK    1  A    between atoms: O_1  and  C_14 
REMARK    2  A    between atoms: O_1  and  C_21 
REMARK    3  A    between atoms: O_4  and  C_17 
REMARK    4  A    between atoms: O_4  and  C_22 
REMARK    5  A    between atoms: N_6  and  C_8 
REMARK       I    between atoms: N_6  and  C_12 
REMARK    6  A    between atoms: N_7  and  C_10 
REMARK    7  A    between atoms: C_8  and  C_9 
REMARK    8  A    between atoms: C_8  and  C_14 
REMARK    9  A    between atoms: C_9  and  C_11 
REMARK   10  A    between atoms: C_10  and  C_12 
REMARK   11  A    between atoms: C_10  and  C_13 
REMARK   12  A    between atoms: C_13  and  C_17 
REMARK   13  A    between atoms: C_21  and  C_23 
REMARK   14  A    between atoms: C_22  and  C_24 
ROOT
HETATM    1  O   LIG     1     -20.442 -16.160 -14.029  1.00  0.00    -0.271 OA
HETATM    2  N   LIG     1     -20.318 -15.125 -11.954  1.00  0.00    -0.345 N 
HETATM    3  C   LIG     1     -20.346 -15.145 -13.341  1.00  0.00     0.252 C 
HETATM    4  H   LIG     1     -20.220 -14.237 -11.471  1.00  0.00     0.163 HD
ENDROOT
BRANCH   2   5
HETATM    5  C   LIG     1     -20.401 -16.318 -11.143  1.00  0.00     0.188 C 
BRANCH   5   6
HETATM    6  C   LIG     1     -19.036 -17.012 -11.030  1.00  0.00     0.074 C 
BRANCH   6   7
HETATM    7  C   LIG     1     -19.083 -18.520 -11.129  1.00  0.00    -0.056 A 
HETATM    8  C   LIG     1     -19.222 -19.135 -12.374  1.00  0.00     0.007 A 
HETATM    9  C   LIG     1     -19.266 -20.526 -12.464  1.00  0.00     0.001 A 
HETATM   10  C   LIG     1     -19.173 -21.303 -11.310  1.00  0.00     0.000 A 
HETATM   11  C   LIG     1     -19.034 -20.689 -10.065  1.00  0.00     0.001 A 
HETATM   12  C   LIG     1     -18.989 -19.298  -9.975  1.00  0.00     0.007 A 
ENDBRANCH   6   7
ENDBRANCH   5   6
BRANCH   5  13
HETATM   13  C   LIG     1     -21.019 -16.049  -9.776  1.00  0.00     0.282 C 
HETATM   14  O   LIG     1     -20.342 -15.845  -8.774  1.00  0.00    -0.263 OA
BRANCH  13  15
HETATM   15  O   LIG     1     -22.381 -16.081  -9.812  1.00  0.00    -0.316 OA
BRANCH  15  16
HETATM   16  C   LIG     1     -23.046 -15.403  -8.742  1.00  0.00     0.205 C 
BRANCH  16  17
HETATM   17  C   LIG     1     -24.199 -16.236  -8.290  1.00  0.00    -0.011 C 
HETATM   18  C   LIG     1     -24.250 -16.866  -7.112  1.00  0.00     0.009 C 
ENDBRANCH  16  17
ENDBRANCH  15  16
ENDBRANCH  13  15
ENDBRANCH   5  13
ENDBRANCH   2   5
BRANCH   3  19
HETATM   19  C   LIG     1     -20.211 -13.748 -13.942  1.00  0.00     0.318 C 
BRANCH  19  20
HETATM   20  N   LIG     1     -18.843 -13.633 -14.449  1.00  0.00     0.092 N 
HETATM   21  H   LIG     1     -18.374 -14.535 -14.376  1.00  0.00     0.313 HD
HETATM   22  H   LIG     1     -18.867 -13.406 -15.443  1.00  0.00     0.313 HD
ENDBRANCH  19  20
BRANCH  19  23
HETATM   23  C   LIG     1     -21.208 -13.570 -15.087  1.00  0.00     0.156 C 
BRANCH  23  24
HETATM   24  C   LIG     1     -22.596 -13.296 -14.558  1.00  0.00     0.261 C 
HETATM   25  O   LIG     1     -22.840 -12.485 -13.673  1.00  0.00    -0.265 OA
BRANCH  24  26
HETATM   26  O   LIG     1     -23.510 -14.052 -15.229  1.00  0.00    -0.318 OA
BRANCH  26  27
HETATM   27  C   LIG     1     -24.512 -13.321 -15.941  1.00  0.00     0.205 C 
BRANCH  27  28
HETATM   28  C   LIG     1     -23.967 -12.931 -17.275  1.00  0.00    -0.011 C 
HETATM   29  C   LIG     1     -23.928 -13.746 -18.334  1.00  0.00     0.009 C 
ENDBRANCH  27  28
ENDBRANCH  26  27
ENDBRANCH  24  26
ENDBRANCH  23  24
ENDBRANCH  19  23
ENDBRANCH   3  19
TORSDOF 14
ENDMDL
MODEL 5
REMARK VINA RESULT:      -7.6      1.377      2.446
REMARK  14 active torsions:
REMARK  status: ('A' for Active; 'I' for Inactive)
REMARK    1  A    between atoms: O_1  and  C_14 
REMARK    2  A    between atoms: O_1  and  C_21 
REMARK    3  A    between atoms: O_4  and  C_17 
REMARK    4  A    between atoms: O_4  and  C_22 
REMARK    5  A    between atoms: N_6  and  C_8 
REMARK       I    between atoms: N_6  and  C_12 
REMARK    6  A    between atoms: N_7  and  C_10 
REMARK    7  A    between atoms: C_8  and  C_9 
REMARK    8  A    between atoms: C_8  and  C_14 
REMARK    9  A    between atoms: C_9  and  C_11 
REMARK   10  A    between atoms: C_10  and  C_12 
REMARK   11  A    between atoms: C_10  and  C_13 
REMARK   12  A    between atoms: C_13  and  C_17 
REMARK   13  A    between atoms: C_21  and  C_23 
REMARK   14  A    between atoms: C_22  and  C_24 
ROOT
HETATM    1  O   LIG     1     -22.667 -16.193 -13.057  1.00  0.00    -0.271 OA
HETATM    2  N   LIG     1     -20.851 -15.984 -11.625  1.00  0.00    -0.345 N 
HETATM    3  C   LIG     1     -21.495 -16.431 -12.770  1.00  0.00     0.252 C 
HETATM    4  H   LIG     1     -19.883 -16.246 -11.464  1.00  0.00     0.163 HD
ENDROOT
BRANCH   2   5
HETATM    5  C   LIG     1     -21.496 -15.171 -10.620  1.00  0.00     0.188 C 
BRANCH   5   6
HETATM    6  C   LIG     1     -21.100 -15.615  -9.204  1.00  0.00     0.074 C 
BRANCH   6   7
HETATM    7  C   LIG     1     -22.247 -16.115  -8.355  1.00  0.00    -0.056 A 
HETATM    8  C   LIG     1     -23.562 -15.817  -8.713  1.00  0.00     0.007 A 
HETATM    9  C   LIG     1     -24.620 -16.278  -7.929  1.00  0.00     0.001 A 
HETATM   10  C   LIG     1     -24.363 -17.037  -6.788  1.00  0.00     0.000 A 
HETATM   11  C   LIG     1     -23.048 -17.336  -6.430  1.00  0.00     0.001 A 
HETATM   12  C   LIG     1     -21.991 -16.875  -7.214  1.00  0.00     0.007 A 
ENDBRANCH   6   7
ENDBRANCH   5   6
BRANCH   5  13
HETATM   13  C   LIG     1     -21.257 -13.681 -10.838  1.00  0.00     0.282 C 
HETATM   14  O   LIG     1     -22.073 -12.826 -10.510  1.00  0.00    -0.263 OA
BRANCH  13  15
HETATM   15  O   LIG     1     -20.060 -13.436 -11.442  1.00  0.00    -0.316 OA
BRANCH  15  16
HETATM   16  C   LIG     1     -20.128 -12.771 -12.708  1.00  0.00     0.205 C 
BRANCH  16  17
HETATM   17  C   LIG     1     -19.158 -13.416 -13.641  1.00  0.00    -0.011 C 
HETATM   18  C   LIG     1     -18.049 -14.049 -13.246  1.00  0.00     0.009 C 
ENDBRANCH  16  17
ENDBRANCH  15  16
ENDBRANCH  13  15
ENDBRANCH   5  13
ENDBRANCH   2   5
BRANCH   3  19
HETATM   19  C   LIG     1     -20.589 -17.296 -13.642  1.00  0.00     0.318 C 
BRANCH  19  20
HETATM   20  N   LIG     1     -20.215 -16.487 -14.802  1.00  0.00     0.092 N 
HETATM   21  H   LIG     1     -21.048 -16.254 -15.340  1.00  0.00     0.313 HD
HETATM   22  H   LIG     1     -19.825 -15.599 -14.486  1.00  0.00     0.313 HD
ENDBRANCH  19  20
BRANCH  19  23
HETATM   23  C   LIG     1     -19.337 -17.698 -12.861  1.00  0.00     0.156 C 
BRANCH  23  24
HETATM   24  C   LIG     1     -19.231 -19.199 -12.744  1.00  0.00     0.261 C 
HETATM   25  O   LIG     1     -19.266 -19.962 -13.702  1.00  0.00    -0.265 OA
BRANCH  24  26
HETATM   26  O   LIG     1     -19.064 -19.555 -11.439  1.00  0.00    -0.318 OA
BRANCH  26  27
HETATM   27  C   LIG     1     -18.837 -18.475 -10.529  1.00  0.00     0.205 C 
BRANCH  27  28
HETATM   28  C   LIG     1     -19.285 -18.891  -9.167  1.00  0.00    -0.011 C 
HETATM   29  C   LIG     1     -18.963 -20.058  -8.599  1.00  0.00     0.009 C 
ENDBRANCH  27  28
ENDBRANCH  26  27
ENDBRANCH  24  26
ENDBRANCH  23  24
ENDBRANCH  19  23
ENDBRANCH   3  19
TORSDOF 14
ENDMDL
MODEL 6
REMARK VINA RESULT:      -7.6      2.606      6.161
REMARK  14 active torsions:
REMARK  status: ('A' for Active; 'I' for Inactive)
REMARK    1  A    between atoms: O_1  and  C_14 
REMARK    2  A    between atoms: O_1  and  C_21 
REMARK    3  A    between atoms: O_4  and  C_17 
REMARK    4  A    between atoms: O_4  and  C_22 
REMARK    5  A    between atoms: N_6  and  C_8 
REMARK       I    between atoms: N_6  and  C_12 
REMARK    6  A    between atoms: N_7  and  C_10 
REMARK    7  A    between atoms: C_8  and  C_9 
REMARK    8  A    between atoms: C_8  and  C_14 
REMARK    9  A    between atoms: C_9  and  C_11 
REMARK   10  A    between atoms: C_10  and  C_12 
REMARK   11  A    between atoms: C_10  and  C_13 
REMARK   12  A    between atoms: C_13  and  C_17 
REMARK   13  A    between atoms: C_21  and  C_23 
REMARK   14  A    between atoms: C_22  and  C_24 
ROOT
HETATM    1  O   LIG     1     -21.646 -16.705 -13.392  1.00  0.00    -0.271 OA
HETATM    2  N   LIG     1     -19.951 -15.829 -12.069  1.00  0.00    -0.345 N 
HETATM    3  C   LIG     1     -20.746 -15.888 -13.205  1.00  0.00     0.252 C 
HETATM    4  H   LIG     1     -19.219 -15.126 -12.011  1.00  0.00     0.163 HD
ENDROOT
BRANCH   2   5
HETATM    5  C   LIG     1     -20.093 -16.737 -10.955  1.00  0.00     0.188 C 
BRANCH   5   6
HETATM    6  C   LIG     1     -18.846 -17.620 -10.792  1.00  0.00     0.074 C 
BRANCH   6   7
HETATM    7  C   LIG     1     -19.024 -19.053 -11.239  1.00  0.00    -0.056 A 
HETATM    8  C   LIG     1     -19.237 -19.343 -12.587  1.00  0.00     0.007 A 
HETATM    9  C   LIG     1     -19.401 -20.666 -12.998  1.00  0.00     0.001 A 
HETATM   10  C   LIG     1     -19.354 -21.698 -12.062  1.00  0.00     0.000 A 
HETATM   11  C   LIG     1     -19.141 -21.409 -10.714  1.00  0.00     0.001 A 
HETATM   12  C   LIG     1     -18.976 -20.086 -10.303  1.00  0.00     0.007 A 
ENDBRANCH   6   7
ENDBRANCH   5   6
BRANCH   5  13
HETATM   13  C   LIG     1     -20.454 -16.016  -9.661  1.00  0.00     0.282 C 
HETATM   14  O   LIG     1     -20.815 -14.844  -9.636  1.00  0.00    -0.263 OA
BRANCH  13  15
HETATM   15  O   LIG     1     -20.309 -16.818  -8.569  1.00  0.00    -0.316 OA
BRANCH  15  16
HETATM   16  C   LIG     1     -21.446 -17.619  -8.230  1.00  0.00     0.205 C 
BRANCH  16  17
HETATM   17  C   LIG     1     -22.184 -16.957  -7.115  1.00  0.00    -0.011 C 
HETATM   18  C   LIG     1     -22.930 -17.612  -6.220  1.00  0.00     0.009 C 
ENDBRANCH  16  17
ENDBRANCH  15  16
ENDBRANCH  13  15
ENDBRANCH   5  13
ENDBRANCH   2   5
BRANCH   3  19
HETATM   19  C   LIG     1     -20.360 -14.831 -14.236  1.00  0.00     0.318 C 
BRANCH  19  20
HETATM   20  N   LIG     1     -21.120 -15.123 -15.452  1.00  0.00     0.092 N 
HETATM   21  H   LIG     1     -20.517 -15.019 -16.266  1.00  0.00     0.313 HD
HETATM   22  H   LIG     1     -21.416 -16.099 -15.442  1.00  0.00     0.313 HD
ENDBRANCH  19  20
BRANCH  19  23
HETATM   23  C   LIG     1     -20.720 -13.437 -13.719  1.00  0.00     0.156 C 
BRANCH  23  24
HETATM   24  C   LIG     1     -22.217 -13.250 -13.666  1.00  0.00     0.261 C 
HETATM   25  O   LIG     1     -22.887 -13.401 -12.652  1.00  0.00    -0.265 OA
BRANCH  24  26
HETATM   26  O   LIG     1     -22.683 -12.865 -14.888  1.00  0.00    -0.318 OA
BRANCH  26  27
HETATM   27  C   LIG     1     -24.107 -12.857 -15.031  1.00  0.00     0.205 C 
BRANCH  27  28
HETATM   28  C   LIG     1     -24.462 -13.467 -16.346  1.00  0.00    -0.011 C 
HETATM   29  C   LIG     1     -24.067 -12.979 -17.527  1.00  0.00     0.009 C 
ENDBRANCH  27  28
ENDBRANCH  26  27
ENDBRANCH  24  26
ENDBRANCH  23  24
ENDBRANCH  19  23
ENDBRANCH   3  19
TORSDOF 14
ENDMDL
MODEL 7
REMARK VINA RESULT:      -7.4      2.186      3.579
REMARK  14 active torsions:
REMARK  status: ('A' for Active; 'I' for Inactive)
REMARK    1  A    between atoms: O_1  and  C_14 
REMARK    2  A    between atoms: O_1  and  C_21 
REMARK    3  A    between atoms: O_4  and  C_17 
REMARK    4  A    between atoms: O_4  and  C_22 
REMARK    5  A    between atoms: N_6  and  C_8 
REMARK       I    between atoms: N_6  and  C_12 
REMARK    6  A    between atoms: N_7  and  C_10 
REMARK    7  A    between atoms: C_8  and  C_9 
REMARK    8  A    between atoms: C_8  and  C_14 
REMARK    9  A    between atoms: C_9  and  C_11 
REMARK   10  A    between atoms: C_10  and  C_12 
REMARK   11  A    between atoms: C_10  and  C_13 
REMARK   12  A    between atoms: C_13  and  C_17 
REMARK   13  A    between atoms: C_21  and  C_23 
REMARK   14  A    between atoms: C_22  and  C_24 
ROOT
HETATM    1  O   LIG     1     -21.336 -16.648 -12.697  1.00  0.00    -0.271 OA
HETATM    2  N   LIG     1     -20.974 -15.526 -10.697  1.00  0.00    -0.345 N 
HETATM    3  C   LIG     1     -20.660 -16.442 -11.691  1.00  0.00     0.252 C 
HETATM    4  H   LIG     1     -20.361 -15.437  -9.891  1.00  0.00     0.163 HD
ENDROOT
BRANCH   2   5
HETATM    5  C   LIG     1     -22.152 -14.691 -10.733  1.00  0.00     0.188 C 
BRANCH   5   6
HETATM    6  C   LIG     1     -22.508 -14.167  -9.333  1.00  0.00     0.074 C 
BRANCH   6   7
HETATM    7  C   LIG     1     -22.937 -15.233  -8.350  1.00  0.00    -0.056 A 
HETATM    8  C   LIG     1     -22.034 -15.709  -7.399  1.00  0.00     0.007 A 
HETATM    9  C   LIG     1     -22.430 -16.692  -6.492  1.00  0.00     0.001 A 
HETATM   10  C   LIG     1     -23.728 -17.200  -6.537  1.00  0.00     0.000 A 
HETATM   11  C   LIG     1     -24.631 -16.724  -7.487  1.00  0.00     0.001 A 
HETATM   12  C   LIG     1     -24.235 -15.740  -8.394  1.00  0.00     0.007 A 
ENDBRANCH   6   7
ENDBRANCH   5   6
BRANCH   5  13
HETATM   13  C   LIG     1     -22.033 -13.562 -11.750  1.00  0.00     0.282 C 
HETATM   14  O   LIG     1     -21.305 -12.590 -11.578  1.00  0.00    -0.263 OA
BRANCH  13  15
HETATM   15  O   LIG     1     -22.834 -13.762 -12.835  1.00  0.00    -0.316 OA
BRANCH  15  16
HETATM   16  C   LIG     1     -23.278 -12.579 -13.506  1.00  0.00     0.205 C 
BRANCH  16  17
HETATM   17  C   LIG     1     -23.470 -12.891 -14.952  1.00  0.00    -0.011 C 
HETATM   18  C   LIG     1     -24.649 -12.836 -15.579  1.00  0.00     0.009 C 
ENDBRANCH  16  17
ENDBRANCH  15  16
ENDBRANCH  13  15
ENDBRANCH   5  13
ENDBRANCH   2   5
BRANCH   3  19
HETATM   19  C   LIG     1     -19.377 -17.211 -11.384  1.00  0.00     0.318 C 
BRANCH  19  20
HETATM   20  N   LIG     1     -18.262 -16.362 -11.803  1.00  0.00     0.092 N 
HETATM   21  H   LIG     1     -17.637 -16.892 -12.409  1.00  0.00     0.313 HD
HETATM   22  H   LIG     1     -18.615 -15.590 -12.367  1.00  0.00     0.313 HD
ENDBRANCH  19  20
BRANCH  19  23
HETATM   23  C   LIG     1     -19.281 -17.495  -9.884  1.00  0.00     0.156 C 
BRANCH  23  24
HETATM   24  C   LIG     1     -19.075 -18.968  -9.625  1.00  0.00     0.261 C 
HETATM   25  O   LIG     1     -18.869 -19.442  -8.514  1.00  0.00    -0.265 OA
BRANCH  24  26
HETATM   26  O   LIG     1     -19.185 -19.667 -10.790  1.00  0.00    -0.318 OA
BRANCH  26  27
HETATM   27  C   LIG     1     -19.026 -21.084 -10.676  1.00  0.00     0.205 C 
BRANCH  27  28
HETATM   28  C   LIG     1     -19.382 -21.714 -11.981  1.00  0.00    -0.011 C 
HETATM   29  C   LIG     1     -19.602 -21.028 -13.107  1.00  0.00     0.009 C 
ENDBRANCH  27  28
ENDBRANCH  26  27
ENDBRANCH  24  26
ENDBRANCH  23  24
ENDBRANCH  19  23
ENDBRANCH   3  19
TORSDOF 14
ENDMDL
MODEL 8
REMARK VINA RESULT:      -7.3      3.624      5.775
REMARK  14 active torsions:
REMARK  status: ('A' for Active; 'I' for Inactive)
REMARK    1  A    between atoms: O_1  and  C_14 
REMARK    2  A    between atoms: O_1  and  C_21 
REMARK    3  A    between atoms: O_4  and  C_17 
REMARK    4  A    between atoms: O_4  and  C_22 
REMARK    5  A    between atoms: N_6  and  C_8 
REMARK       I    between atoms: N_6  and  C_12 
REMARK    6  A    between atoms: N_7  and  C_10 
REMARK    7  A    between atoms: C_8  and  C_9 
REMARK    8  A    between atoms: C_8  and  C_14 
REMARK    9  A    between atoms: C_9  and  C_11 
REMARK   10  A    between atoms: C_10  and  C_12 
REMARK   11  A    between atoms: C_10  and  C_13 
REMARK   12  A    between atoms: C_13  and  C_17 
REMARK   13  A    between atoms: C_21  and  C_23 
REMARK   14  A    between atoms: C_22  and  C_24 
ROOT
HETATM    1  O   LIG     1     -22.275 -15.902 -12.632  1.00  0.00    -0.271 OA
HETATM    2  N   LIG     1     -20.989 -17.195 -14.068  1.00  0.00    -0.345 N 
HETATM    3  C   LIG     1     -22.131 -16.501 -13.696  1.00  0.00     0.252 C 
HETATM    4  H   LIG     1     -20.968 -17.675 -14.964  1.00  0.00     0.163 HD
ENDROOT
BRANCH   2   5
HETATM    5  C   LIG     1     -19.814 -17.293 -13.234  1.00  0.00     0.188 C 
BRANCH   5   6
HETATM    6  C   LIG     1     -19.215 -18.707 -13.277  1.00  0.00     0.074 C 
BRANCH   6   7
HETATM    7  C   LIG     1     -19.132 -19.400 -11.936  1.00  0.00    -0.056 A 
HETATM    8  C   LIG     1     -19.027 -18.646 -10.766  1.00  0.00     0.007 A 
HETATM    9  C   LIG     1     -18.950 -19.286  -9.529  1.00  0.00     0.001 A 
HETATM   10  C   LIG     1     -18.976 -20.679  -9.462  1.00  0.00     0.000 A 
HETATM   11  C   LIG     1     -19.081 -21.432 -10.631  1.00  0.00     0.001 A 
HETATM   12  C   LIG     1     -19.159 -20.793 -11.868  1.00  0.00     0.007 A 
ENDBRANCH   6   7
ENDBRANCH   5   6
BRANCH   5  13
HETATM   13  C   LIG     1     -18.778 -16.225 -13.561  1.00  0.00     0.282 C 
HETATM   14  O   LIG     1     -17.977 -16.341 -14.483  1.00  0.00    -0.263 OA
BRANCH  13  15
HETATM   15  O   LIG     1     -18.846 -15.164 -12.708  1.00  0.00    -0.316 OA
BRANCH  15  16
HETATM   16  C   LIG     1     -18.740 -13.872 -13.313  1.00  0.00     0.205 C 
BRANCH  16  17
HETATM   17  C   LIG     1     -20.011 -13.127 -13.078  1.00  0.00    -0.011 C 
HETATM   18  C   LIG     1     -20.345 -12.567 -11.910  1.00  0.00     0.009 C 
ENDBRANCH  16  17
ENDBRANCH  15  16
ENDBRANCH  13  15
ENDBRANCH   5  13
ENDBRANCH   2   5
BRANCH   3  19
HETATM   19  C   LIG     1     -23.229 -16.587 -14.753  1.00  0.00     0.318 C 
BRANCH  19  20
HETATM   20  N   LIG     1     -22.792 -15.774 -15.888  1.00  0.00     0.092 N 
HETATM   21  H   LIG     1     -21.817 -15.506 -15.761  1.00  0.00     0.313 HD
HETATM   22  H   LIG     1     -22.822 -16.335 -16.739  1.00  0.00     0.313 HD
ENDBRANCH  19  20
BRANCH  19  23
HETATM   23  C   LIG     1     -23.422 -18.038 -15.193  1.00  0.00     0.156 C 
BRANCH  23  24
HETATM   24  C   LIG     1     -24.835 -18.501 -14.928  1.00  0.00     0.261 C 
HETATM   25  O   LIG     1     -25.828 -17.818 -15.147  1.00  0.00    -0.265 OA
BRANCH  24  26
HETATM   26  O   LIG     1     -24.826 -19.777 -14.449  1.00  0.00    -0.318 OA
BRANCH  26  27
HETATM   27  C   LIG     1     -23.963 -20.688 -15.137  1.00  0.00     0.205 C 
BRANCH  27  28
HETATM   28  C   LIG     1     -24.789 -21.545 -16.037  1.00  0.00    -0.011 C 
HETATM   29  C   LIG     1     -25.353 -22.698 -15.662  1.00  0.00     0.009 C 
ENDBRANCH  27  28
ENDBRANCH  26  27
ENDBRANCH  24  26
ENDBRANCH  23  24
ENDBRANCH  19  23
ENDBRANCH   3  19
TORSDOF 14
ENDMDL
MODEL 9
REMARK VINA RESULT:      -7.2      2.183      4.752
REMARK  14 active torsions:
REMARK  status: ('A' for Active; 'I' for Inactive)
REMARK    1  A    between atoms: O_1  and  C_14 
REMARK    2  A    between atoms: O_1  and  C_21 
REMARK    3  A    between atoms: O_4  and  C_17 
REMARK    4  A    between atoms: O_4  and  C_22 
REMARK    5  A    between atoms: N_6  and  C_8 
REMARK       I    between atoms: N_6  and  C_12 
REMARK    6  A    between atoms: N_7  and  C_10 
REMARK    7  A    between atoms: C_8  and  C_9 
REMARK    8  A    between atoms: C_8  and  C_14 
REMARK    9  A    between atoms: C_9  and  C_11 
REMARK   10  A    between atoms: C_10  and  C_12 
REMARK   11  A    between atoms: C_10  and  C_13 
REMARK   12  A    between atoms: C_13  and  C_17 
REMARK   13  A    between atoms: C_21  and  C_23 
REMARK   14  A    between atoms: C_22  and  C_24 
ROOT
HETATM    1  O   LIG     1     -22.571 -13.392  -9.903  1.00  0.00    -0.271 OA
HETATM    2  N   LIG     1     -21.126 -14.687 -11.178  1.00  0.00    -0.345 N 
HETATM    3  C   LIG     1     -21.944 -13.590 -10.942  1.00  0.00     0.252 C 
HETATM    4  H   LIG     1     -20.659 -14.775 -12.076  1.00  0.00     0.163 HD
ENDROOT
BRANCH   2   5
HETATM    5  C   LIG     1     -20.914 -15.739 -10.211  1.00  0.00     0.188 C 
BRANCH   5   6
HETATM    6  C   LIG     1     -22.092 -16.725 -10.191  1.00  0.00     0.074 C 
BRANCH   6   7
HETATM    7  C   LIG     1     -22.763 -16.880  -8.846  1.00  0.00    -0.056 A 
HETATM    8  C   LIG     1     -22.078 -17.479  -7.788  1.00  0.00     0.007 A 
HETATM    9  C   LIG     1     -22.698 -17.623  -6.547  1.00  0.00     0.001 A 
HETATM   10  C   LIG     1     -24.003 -17.167  -6.363  1.00  0.00     0.000 A 
HETATM   11  C   LIG     1     -24.688 -16.567  -7.419  1.00  0.00     0.001 A 
HETATM   12  C   LIG     1     -24.068 -16.424  -8.660  1.00  0.00     0.007 A 
ENDBRANCH   6   7
ENDBRANCH   5   6
BRANCH   5  13
HETATM   13  C   LIG     1     -19.580 -16.449 -10.410  1.00  0.00     0.282 C 
HETATM   14  O   LIG     1     -19.038 -16.543 -11.507  1.00  0.00    -0.263 OA
BRANCH  13  15
HETATM   15  O   LIG     1     -19.094 -16.965  -9.246  1.00  0.00    -0.316 OA
BRANCH  15  16
HETATM   16  C   LIG     1     -18.271 -18.128  -9.378  1.00  0.00     0.205 C 
BRANCH  16  17
HETATM   17  C   LIG     1     -19.122 -19.341  -9.202  1.00  0.00    -0.011 C 
HETATM   18  C   LIG     1     -19.065 -20.146  -8.136  1.00  0.00     0.009 C 
ENDBRANCH  16  17
ENDBRANCH  15  16
ENDBRANCH  13  15
ENDBRANCH   5  13
ENDBRANCH   2   5
BRANCH   3  19
HETATM   19  C   LIG     1     -22.012 -12.651 -12.143  1.00  0.00     0.318 C 
BRANCH  19  20
HETATM   20  N   LIG     1     -20.652 -12.537 -12.673  1.00  0.00     0.092 N 
HETATM   21  H   LIG     1     -20.664 -12.688 -13.680  1.00  0.00     0.313 HD
HETATM   22  H   LIG     1     -20.311 -11.587 -12.532  1.00  0.00     0.313 HD
ENDBRANCH  19  20
BRANCH  19  23
HETATM   23  C   LIG     1     -22.940 -13.230 -13.211  1.00  0.00     0.156 C 
BRANCH  23  24
HETATM   24  C   LIG     1     -22.150 -13.790 -14.369  1.00  0.00     0.261 C 
HETATM   25  O   LIG     1     -21.911 -13.167 -15.396  1.00  0.00    -0.265 OA
BRANCH  24  26
HETATM   26  O   LIG     1     -21.729 -15.054 -14.079  1.00  0.00    -0.318 OA
BRANCH  26  27
HETATM   27  C   LIG     1     -22.757 -16.047 -14.013  1.00  0.00     0.205 C 
BRANCH  27  28
HETATM   28  C   LIG     1     -22.182 -17.363 -14.420  1.00  0.00    -0.011 C 
HETATM   29  C   LIG     1     -22.879 -18.325 -15.034  1.00  0.00     0.009 C 
ENDBRANCH  27  28
ENDBRANCH  26  27
ENDBRANCH  24  26
ENDBRANCH  23  24
ENDBRANCH  19  23
ENDBRANCH   3  19
TORSDOF 14
ENDMDL
