MODEL 1
REMARK VINA RESULT:      -9.8      0.000      0.000
REMARK  1 active torsions:
REMARK  status: ('A' for Active; 'I' for Inactive)
REMARK    1  A    between atoms: C_10  and  C_15 
ROOT
HETATM    1 CL   LIG     1     -18.686 -19.799  -9.002  1.00  0.00    -0.084 Cl
HETATM    2  N   LIG     1     -20.616 -15.339 -12.410  1.00  0.00    -0.300 N 
HETATM    3  N   LIG     1     -21.504 -14.208  -9.714  1.00  0.00    -0.282 NA
HETATM    4  N   LIG     1     -21.141 -14.160 -14.239  1.00  0.00    -0.245 NA
HETATM    5  C   LIG     1     -20.243 -16.424 -11.582  1.00  0.00     0.053 A 
HETATM    6  C   LIG     1     -20.795 -14.032 -12.006  1.00  0.00     0.056 A 
HETATM    7  C   LIG     1     -20.543 -16.447 -10.205  1.00  0.00     0.022 A 
HETATM    8  C   LIG     1     -20.555 -13.582 -10.616  1.00  0.00     0.208 C 
HETATM    9  C   LIG     1     -21.485 -15.486  -9.541  1.00  0.00     0.077 C 
HETATM   10  C   LIG     1     -20.800 -15.341 -13.775  1.00  0.00     0.107 A 
HETATM   11  C   LIG     1     -21.141 -13.341 -13.145  1.00  0.00     0.145 A 
HETATM   12  C   LIG     1     -19.521 -17.485 -12.154  1.00  0.00     0.032 A 
HETATM   13  C   LIG     1     -20.035 -17.493  -9.415  1.00  0.00     0.040 A 
HETATM   14  C   LIG     1     -20.815 -16.546 -14.637  1.00  0.00     0.091 C 
HETATM   15  C   LIG     1     -19.048 -18.528 -11.356  1.00  0.00     0.026 A 
HETATM   16  C   LIG     1     -19.292 -18.524  -9.988  1.00  0.00     0.035 A 
ENDROOT
BRANCH   9  17
HETATM   17  C   LIG     1     -22.517 -16.038  -8.615  1.00  0.00     0.032 A 
HETATM   18  C   LIG     1     -22.243 -16.133  -7.257  1.00  0.00     0.129 A 
HETATM   19  F   LIG     1     -21.061 -15.736  -6.762  1.00  0.00    -0.205 F 
HETATM   20  C   LIG     1     -23.210 -16.649  -6.395  1.00  0.00     0.043 A 
HETATM   21  C   LIG     1     -24.442 -17.065  -6.896  1.00  0.00     0.003 A 
HETATM   22  C   LIG     1     -24.708 -16.965  -8.263  1.00  0.00     0.001 A 
HETATM   23  C   LIG     1     -23.741 -16.450  -9.125  1.00  0.00     0.017 A 
ENDBRANCH   9  17
TORSDOF 1
ENDMDL
