MODEL 1
REMARK VINA RESULT:      -8.8      0.000      0.000
REMARK  1 active torsions:
REMARK  status: ('A' for Active; 'I' for Inactive)
REMARK    1  A    between atoms: C_7  and  C_21 
ROOT
HETATM    1  O   LIG     1     -21.553 -14.470  -6.686  1.00  0.00    -0.291 OA
HETATM    2  C   LIG     1     -23.283 -14.951 -14.113  1.00  0.00     0.000 C 
HETATM    3  C   LIG     1     -23.226 -13.647 -14.939  1.00  0.00     0.006 C 
HETATM    4  C   LIG     1     -22.227 -15.001 -13.005  1.00  0.00     0.001 C 
HETATM    5  C   LIG     1     -22.455 -13.799 -12.036  1.00  0.00     0.004 C 
HETATM    6  C   LIG     1     -21.440 -13.783 -10.829  1.00  0.00     0.016 C 
HETATM    7  C   LIG     1     -24.343 -13.951 -15.962  1.00  0.00     0.058 C 
HETATM    8  C   LIG     1     -23.525 -12.479 -13.989  1.00  0.00     0.000 C 
HETATM    9  C   LIG     1     -22.546 -12.449 -12.801  1.00  0.00     0.000 C 
HETATM   10  C   LIG     1     -23.294 -16.042 -15.178  1.00  0.00     0.000 C 
HETATM   11  C   LIG     1     -22.293 -16.322 -12.227  1.00  0.00     0.004 C 
HETATM   12  C   LIG     1     -24.143 -15.440 -16.312  1.00  0.00     0.007 C 
HETATM   13  C   LIG     1     -21.398 -15.171 -10.177  1.00  0.00    -0.042 C 
HETATM   14  C   LIG     1     -21.868 -13.412 -15.649  1.00  0.00     0.000 C 
HETATM   15  C   LIG     1     -21.263 -16.354 -11.106  1.00  0.00     0.022 C 
HETATM   16  C   LIG     1     -21.924 -12.723  -9.797  1.00  0.00     0.012 C 
HETATM   17  C   LIG     1     -20.007 -13.421 -11.284  1.00  0.00     0.004 C 
HETATM   18  C   LIG     1     -21.267 -12.857  -8.432  1.00  0.00     0.070 C 
HETATM   19  C   LIG     1     -21.452 -15.378  -8.850  1.00  0.00     0.029 C 
HETATM   20  C   LIG     1     -21.461 -14.249  -7.892  1.00  0.00     0.172 C 
ENDROOT
BRANCH   7  21
HETATM   21  C   LIG     1     -24.326 -13.073 -17.175  1.00  0.00     0.151 C 
HETATM   22  O   LIG     1     -24.615 -11.879 -17.111  1.00  0.00    -0.296 OA
HETATM   23  C   LIG     1     -23.939 -13.724 -18.475  1.00  0.00     0.072 C 
ENDBRANCH   7  21
TORSDOF 1
ENDMDL
