MODEL 1
REMARK VINA RESULT:      -8.8      0.000      0.000
REMARK  1 active torsions:
REMARK  status: ('A' for Active; 'I' for Inactive)
REMARK    1  A    between atoms: C_7  and  C_21 
ROOT
HETATM    1  O   LIG     1     -21.533 -14.508  -6.694  1.00  0.00    -0.291 OA
HETATM    2  C   LIG     1     -23.194 -15.023 -14.134  1.00  0.00     0.000 C 
HETATM    3  C   LIG     1     -23.227 -13.710 -14.945  1.00  0.00     0.006 C 
HETATM    4  C   LIG     1     -22.141 -15.012 -13.021  1.00  0.00     0.001 C 
HETATM    5  C   LIG     1     -22.458 -13.840 -12.040  1.00  0.00     0.004 C 
HETATM    6  C   LIG     1     -21.452 -13.766 -10.828  1.00  0.00     0.016 C 
HETATM    7  C   LIG     1     -24.314 -14.080 -15.977  1.00  0.00     0.058 C 
HETATM    8  C   LIG     1     -23.611 -12.577 -13.983  1.00  0.00     0.000 C 
HETATM    9  C   LIG     1     -22.642 -12.492 -12.790  1.00  0.00     0.000 C 
HETATM   10  C   LIG     1     -23.122 -16.100 -15.211  1.00  0.00     0.000 C 
HETATM   11  C   LIG     1     -22.116 -16.343 -12.259  1.00  0.00     0.004 C 
HETATM   12  C   LIG     1     -24.008 -15.547 -16.343  1.00  0.00     0.007 C 
HETATM   13  C   LIG     1     -21.315 -15.155 -10.191  1.00  0.00    -0.042 C 
HETATM   14  C   LIG     1     -21.885 -13.369 -15.646  1.00  0.00     0.000 C 
HETATM   15  C   LIG     1     -21.091 -16.314 -11.133  1.00  0.00     0.022 C 
HETATM   16  C   LIG     1     -22.015 -12.756  -9.786  1.00  0.00     0.012 C 
HETATM   17  C   LIG     1     -20.047 -13.298 -11.272  1.00  0.00     0.004 C 
HETATM   18  C   LIG     1     -21.356 -12.859  -8.420  1.00  0.00     0.070 C 
HETATM   19  C   LIG     1     -21.359 -15.381  -8.867  1.00  0.00     0.029 C 
HETATM   20  C   LIG     1     -21.452 -14.267  -7.896  1.00  0.00     0.172 C 
ENDROOT
BRANCH   7  21
HETATM   21  C   LIG     1     -24.355 -13.189 -17.180  1.00  0.00     0.151 C 
HETATM   22  O   LIG     1     -24.712 -12.015 -17.101  1.00  0.00    -0.296 OA
HETATM   23  C   LIG     1     -23.937 -13.801 -18.489  1.00  0.00     0.072 C 
ENDBRANCH   7  21
TORSDOF 1
ENDMDL
