MODEL 1
REMARK VINA RESULT:      -6.9      0.000      0.000
REMARK  4 active torsions:
REMARK  status: ('A' for Active; 'I' for Inactive)
REMARK    1  A    between atoms: C_4  and  C_6 
REMARK    2  A    between atoms: C_5  and  C_14 
REMARK    3  A    between atoms: C_7  and  N_16 
REMARK    4  A    between atoms: C_10  and  N_19 
ROOT
HETATM    1  N   LIG     1     -19.311 -15.133 -12.725  1.00  0.00    -0.066 NA
HETATM    2  N   LIG     1     -20.855 -13.305 -13.012  1.00  0.00    -0.045 NA
HETATM    3  C   LIG     1     -21.213 -14.922 -11.262  1.00  0.00     0.048 A 
HETATM    4  C   LIG     1     -20.065 -15.559 -11.690  1.00  0.00     0.080 A 
HETATM    5  C   LIG     1     -21.563 -13.788 -11.968  1.00  0.00     0.153 A 
HETATM    6  C   LIG     1     -19.758 -14.017 -13.332  1.00  0.00     0.722 A 
ENDROOT
BRANCH   3   7
HETATM    7  C   LIG     1     -21.990 -15.417 -10.146  1.00  0.00     0.004 A 
HETATM    8  C   LIG     1     -21.691 -15.001  -8.849  1.00  0.00     0.001 A 
HETATM    9  C   LIG     1     -22.438 -15.478  -7.773  1.00  0.00     0.011 A 
HETATM   10  C   LIG     1     -23.486 -16.374  -7.995  1.00  0.00     0.058 A 
HETATM   11 CL   LIG     1     -24.406 -16.966  -6.667  1.00  0.00    -0.082 Cl
HETATM   12  C   LIG     1     -23.783 -16.791  -9.291  1.00  0.00     0.011 A 
HETATM   13  C   LIG     1     -23.035 -16.313 -10.368  1.00  0.00     0.001 A 
ENDBRANCH   3   7
BRANCH   5  14
HETATM   14  N   LIG     1     -22.729 -13.079 -11.586  1.00  0.00    -0.383 N 
HETATM   15  H   LIG     1     -23.548 -13.217 -12.164  1.00  0.00     0.157 HD
HETATM   16  H   LIG     1     -22.881 -12.881 -10.605  1.00  0.00     0.157 HD
ENDBRANCH   5  14
BRANCH   4  17
HETATM   17  C   LIG     1     -19.576 -16.799 -11.012  1.00  0.00     0.047 C 
HETATM   18  C   LIG     1     -18.913 -17.765 -11.990  1.00  0.00     0.007 C 
ENDBRANCH   4  17
BRANCH   6  19
HETATM   19  N   LIG     1     -18.993 -13.542 -14.419  1.00  0.00    -0.231 N 
HETATM   20  H   LIG     1     -19.457 -13.079 -15.189  1.00  0.00     0.174 HD
HETATM   21  H   LIG     1     -17.991 -13.669 -14.414  1.00  0.00     0.174 HD
ENDBRANCH   6  19
TORSDOF 4
ENDMDL
