MODEL 1
REMARK VINA RESULT:      -9.2      0.000      0.000
REMARK  1 active torsions:
REMARK  status: ('A' for Active; 'I' for Inactive)
REMARK    1  A    between atoms: C_10  and  C_15 
ROOT
HETATM    1 CL   LIG     1     -24.613 -11.058 -11.040  1.00  0.00    -0.084 Cl
HETATM    2  N   LIG     1     -20.236 -14.963 -11.950  1.00  0.00    -0.300 N 
HETATM    3  N   LIG     1     -20.356 -13.816 -14.780  1.00  0.00    -0.282 NA
HETATM    4  N   LIG     1     -18.797 -16.638 -11.583  1.00  0.00    -0.245 NA
HETATM    5  C   LIG     1     -21.332 -14.084 -11.785  1.00  0.00     0.053 A 
HETATM    6  C   LIG     1     -19.256 -14.868 -12.917  1.00  0.00     0.056 A 
HETATM    7  C   LIG     1     -21.878 -13.363 -12.867  1.00  0.00     0.022 A 
HETATM    8  C   LIG     1     -19.204 -13.762 -13.900  1.00  0.00     0.208 C 
HETATM    9  C   LIG     1     -21.542 -13.635 -14.304  1.00  0.00     0.077 C 
HETATM   10  C   LIG     1     -19.878 -16.027 -11.153  1.00  0.00     0.107 A 
HETATM   11  C   LIG     1     -18.405 -15.923 -12.680  1.00  0.00     0.145 A 
HETATM   12  C   LIG     1     -21.859 -13.906 -10.495  1.00  0.00     0.032 A 
HETATM   13  C   LIG     1     -22.884 -12.414 -12.615  1.00  0.00     0.040 A 
HETATM   14  C   LIG     1     -20.691 -16.580 -10.044  1.00  0.00     0.091 C 
HETATM   15  C   LIG     1     -22.876 -12.977 -10.270  1.00  0.00     0.026 A 
HETATM   16  C   LIG     1     -23.377 -12.221 -11.325  1.00  0.00     0.035 A 
ENDROOT
BRANCH   9  17
HETATM   17  C   LIG     1     -22.665 -13.737 -15.283  1.00  0.00     0.032 A 
HETATM   18  C   LIG     1     -23.619 -14.734 -15.134  1.00  0.00     0.129 A 
HETATM   19  F   LIG     1     -23.548 -15.612 -14.123  1.00  0.00    -0.205 F 
HETATM   20  C   LIG     1     -24.667 -14.825 -16.049  1.00  0.00     0.043 A 
HETATM   21  C   LIG     1     -24.752 -13.918 -17.105  1.00  0.00     0.003 A 
HETATM   22  C   LIG     1     -23.788 -12.919 -17.245  1.00  0.00     0.001 A 
HETATM   23  C   LIG     1     -22.740 -12.828 -16.330  1.00  0.00     0.017 A 
ENDBRANCH   9  17
TORSDOF 1
ENDMDL
