MODEL 1
REMARK VINA RESULT:      -8.8      0.000      0.000
REMARK  1 active torsions:
REMARK  status: ('A' for Active; 'I' for Inactive)
REMARK    1  A    between atoms: C_7  and  C_21 
ROOT
HETATM    1  O   LIG     1     -21.537 -14.526  -6.673  1.00  0.00    -0.291 OA
HETATM    2  C   LIG     1     -23.252 -14.955 -14.107  1.00  0.00     0.000 C 
HETATM    3  C   LIG     1     -23.222 -13.641 -14.917  1.00  0.00     0.006 C 
HETATM    4  C   LIG     1     -22.195 -14.997 -12.998  1.00  0.00     0.001 C 
HETATM    5  C   LIG     1     -22.449 -13.811 -12.016  1.00  0.00     0.004 C 
HETATM    6  C   LIG     1     -21.435 -13.788 -10.808  1.00  0.00     0.016 C 
HETATM    7  C   LIG     1     -24.331 -13.957 -15.945  1.00  0.00     0.058 C 
HETATM    8  C   LIG     1     -23.545 -12.492 -13.954  1.00  0.00     0.000 C 
HETATM    9  C   LIG     1     -22.568 -12.455 -12.765  1.00  0.00     0.000 C 
HETATM   10  C   LIG     1     -23.238 -16.035 -15.184  1.00  0.00     0.000 C 
HETATM   11  C   LIG     1     -22.234 -16.328 -12.236  1.00  0.00     0.004 C 
HETATM   12  C   LIG     1     -24.100 -15.437 -16.312  1.00  0.00     0.007 C 
HETATM   13  C   LIG     1     -21.365 -15.182 -10.172  1.00  0.00    -0.042 C 
HETATM   14  C   LIG     1     -21.868 -13.369 -15.623  1.00  0.00     0.000 C 
HETATM   15  C   LIG     1     -21.204 -16.351 -11.115  1.00  0.00     0.022 C 
HETATM   16  C   LIG     1     -21.942 -12.751  -9.763  1.00  0.00     0.012 C 
HETATM   17  C   LIG     1     -20.011 -13.390 -11.257  1.00  0.00     0.004 C 
HETATM   18  C   LIG     1     -21.284 -12.887  -8.400  1.00  0.00     0.070 C 
HETATM   19  C   LIG     1     -21.415 -15.406  -8.847  1.00  0.00     0.029 C 
HETATM   20  C   LIG     1     -21.449 -14.289  -7.876  1.00  0.00     0.172 C 
ENDROOT
BRANCH   7  21
HETATM   21  C   LIG     1     -24.332 -13.065 -17.148  1.00  0.00     0.151 C 
HETATM   22  O   LIG     1     -24.615 -11.871 -17.064  1.00  0.00    -0.296 OA
HETATM   23  C   LIG     1     -23.969 -13.701 -18.462  1.00  0.00     0.072 C 
ENDBRANCH   7  21
TORSDOF 1
ENDMDL
