MODEL 1
REMARK VINA RESULT:      -6.7      0.000      0.000
REMARK  1 active torsions:
REMARK  status: ('A' for Active; 'I' for Inactive)
REMARK    1  A    between atoms: C_7  and  C_21 
ROOT
HETATM    1  O   LIG     1     -24.780 -24.151 -17.284  1.00  0.00    -0.291 OA
HETATM    2  C   LIG     1     -21.579 -17.668 -14.811  1.00  0.00     0.000 C 
HETATM    3  C   LIG     1     -22.489 -16.425 -14.704  1.00  0.00     0.006 C 
HETATM    4  C   LIG     1     -22.314 -18.974 -14.493  1.00  0.00     0.001 C 
HETATM    5  C   LIG     1     -23.495 -19.145 -15.499  1.00  0.00     0.004 C 
HETATM    6  C   LIG     1     -24.294 -20.488 -15.283  1.00  0.00     0.016 C 
HETATM    7  C   LIG     1     -21.449 -15.327 -15.016  1.00  0.00     0.058 C 
HETATM    8  C   LIG     1     -23.604 -16.572 -15.748  1.00  0.00     0.000 C 
HETATM    9  C   LIG     1     -24.393 -17.879 -15.556  1.00  0.00     0.000 C 
HETATM   10  C   LIG     1     -20.358 -17.283 -13.982  1.00  0.00     0.000 C 
HETATM   11  C   LIG     1     -21.371 -20.182 -14.579  1.00  0.00     0.004 C 
HETATM   12  C   LIG     1     -20.179 -15.781 -14.268  1.00  0.00     0.007 C 
HETATM   13  C   LIG     1     -23.309 -21.662 -15.199  1.00  0.00    -0.042 C 
HETATM   14  C   LIG     1     -23.111 -16.220 -13.298  1.00  0.00     0.000 C 
HETATM   15  C   LIG     1     -22.113 -21.481 -14.295  1.00  0.00     0.022 C 
HETATM   16  C   LIG     1     -25.255 -20.685 -16.492  1.00  0.00     0.012 C 
HETATM   17  C   LIG     1     -25.126 -20.462 -13.981  1.00  0.00     0.004 C 
HETATM   18  C   LIG     1     -25.807 -22.096 -16.608  1.00  0.00     0.070 C 
HETATM   19  C   LIG     1     -23.468 -22.823 -15.858  1.00  0.00     0.029 C 
HETATM   20  C   LIG     1     -24.683 -23.097 -16.659  1.00  0.00     0.172 C 
ENDROOT
BRANCH   7  21
HETATM   21  C   LIG     1     -21.875 -13.944 -14.629  1.00  0.00     0.151 C 
HETATM   22  O   LIG     1     -21.433 -13.391 -13.623  1.00  0.00    -0.296 OA
HETATM   23  C   LIG     1     -22.866 -13.264 -15.533  1.00  0.00     0.072 C 
ENDBRANCH   7  21
TORSDOF 1
ENDMDL
