MODEL 1
REMARK VINA RESULT:      -8.7      0.000      0.000
REMARK  1 active torsions:
REMARK  status: ('A' for Active; 'I' for Inactive)
REMARK    1  A    between atoms: C_7  and  C_21 
ROOT
HETATM    1  O   LIG     1     -21.602 -14.524  -6.684  1.00  0.00    -0.291 OA
HETATM    2  C   LIG     1     -23.270 -14.951 -14.129  1.00  0.00     0.000 C 
HETATM    3  C   LIG     1     -23.226 -13.638 -14.940  1.00  0.00     0.006 C 
HETATM    4  C   LIG     1     -22.221 -14.998 -13.013  1.00  0.00     0.001 C 
HETATM    5  C   LIG     1     -22.474 -13.809 -12.034  1.00  0.00     0.004 C 
HETATM    6  C   LIG     1     -21.468 -13.791 -10.819  1.00  0.00     0.016 C 
HETATM    7  C   LIG     1     -24.330 -13.948 -15.975  1.00  0.00     0.058 C 
HETATM    8  C   LIG     1     -23.548 -12.485 -13.981  1.00  0.00     0.000 C 
HETATM    9  C   LIG     1     -22.579 -12.454 -12.785  1.00  0.00     0.000 C 
HETATM   10  C   LIG     1     -23.256 -16.032 -15.205  1.00  0.00     0.000 C 
HETATM   11  C   LIG     1     -22.274 -16.328 -12.250  1.00  0.00     0.004 C 
HETATM   12  C   LIG     1     -24.106 -15.430 -16.339  1.00  0.00     0.007 C 
HETATM   13  C   LIG     1     -21.411 -15.186 -10.181  1.00  0.00    -0.042 C 
HETATM   14  C   LIG     1     -21.866 -13.375 -15.638  1.00  0.00     0.000 C 
HETATM   15  C   LIG     1     -21.251 -16.357 -11.122  1.00  0.00     0.022 C 
HETATM   16  C   LIG     1     -21.975 -12.750  -9.779  1.00  0.00     0.012 C 
HETATM   17  C   LIG     1     -20.038 -13.404 -11.259  1.00  0.00     0.004 C 
HETATM   18  C   LIG     1     -21.327 -12.889  -8.411  1.00  0.00     0.070 C 
HETATM   19  C   LIG     1     -21.471 -15.408  -8.856  1.00  0.00     0.029 C 
HETATM   20  C   LIG     1     -21.504 -14.290  -7.887  1.00  0.00     0.172 C 
ENDROOT
BRANCH   7  21
HETATM   21  C   LIG     1     -24.317 -13.057 -17.179  1.00  0.00     0.151 C 
HETATM   22  O   LIG     1     -24.585 -11.859 -17.097  1.00  0.00    -0.296 OA
HETATM   23  C   LIG     1     -23.960 -13.699 -18.492  1.00  0.00     0.072 C 
ENDBRANCH   7  21
TORSDOF 1
ENDMDL
