MODEL 1
REMARK VINA RESULT:      -5.9      0.000      0.000
REMARK  10 active torsions:
REMARK  status: ('A' for Active; 'I' for Inactive)
REMARK    1  A    between atoms: O_3  and  C_13 
REMARK    2  A    between atoms: O_4  and  C_14 
REMARK    3  A    between atoms: O_5  and  C_15 
REMARK    4  A    between atoms: O_6  and  C_17 
REMARK       I    between atoms: N_12  and  C_18 
REMARK    5  A    between atoms: N_12  and  C_19 
REMARK    6  A    between atoms: C_16  and  C_18 
REMARK    7  A    between atoms: C_19  and  C_20 
REMARK    8  A    between atoms: C_20  and  C_21 
REMARK    9  A    between atoms: N_29  and  C_31 
REMARK   10  A    between atoms: N_30  and  C_32 
ROOT
HETATM    1  C   LIG     3     -25.151 -24.020 -17.144  1.00  0.00     0.049 A 
HETATM    2  C   LIG     3     -25.085 -23.027 -17.249  1.00  0.00     0.101 A 
HETATM    3  C   LIG     3     -25.407 -24.413 -16.260  1.00  0.00     0.002 A 
HETATM    4  C   LIG     3     -25.274 -22.428 -16.471  1.00  0.00     0.056 A 
HETATM    5  C   LIG     3     -25.596 -23.813 -15.482  1.00  0.00     0.026 A 
HETATM    6  C   LIG     3     -25.529 -22.821 -15.588  1.00  0.00     0.027 A 
ENDROOT
BRANCH   1   7
HETATM    7  N   LIG     3     -24.962 -24.619 -17.922  1.00  0.00    -0.430 N 
HETATM    8  H   LIG     3     -25.063 -24.418 -18.500  1.00  0.00     0.149 HD
HETATM    9  H   LIG     3     -24.745 -25.191 -17.826  1.00  0.00     0.149 HD
ENDBRANCH   1   7
BRANCH   2  10
HETATM   10  N   LIG     3     -24.829 -22.634 -18.132  1.00  0.00    -0.430 N 
HETATM   11  H   LIG     3     -25.110 -22.120 -18.336  1.00  0.00     0.149 HD
HETATM   12  H   LIG     3     -24.390 -22.905 -18.477  1.00  0.00     0.149 HD
ENDBRANCH   2  10
TORSDOF 10
ENDMDL
MODEL 2
REMARK VINA RESULT:      -5.9      0.009      1.581
REMARK  10 active torsions:
REMARK  status: ('A' for Active; 'I' for Inactive)
REMARK    1  A    between atoms: O_3  and  C_13 
REMARK    2  A    between atoms: O_4  and  C_14 
REMARK    3  A    between atoms: O_5  and  C_15 
REMARK    4  A    between atoms: O_6  and  C_17 
REMARK       I    between atoms: N_12  and  C_18 
REMARK    5  A    between atoms: N_12  and  C_19 
REMARK    6  A    between atoms: C_16  and  C_18 
REMARK    7  A    between atoms: C_19  and  C_20 
REMARK    8  A    between atoms: C_20  and  C_21 
REMARK    9  A    between atoms: N_29  and  C_31 
REMARK   10  A    between atoms: N_30  and  C_32 
ROOT
HETATM    1  C   LIG     3     -25.085 -23.030 -17.248  1.00  0.00     0.049 A 
HETATM    2  C   LIG     3     -25.145 -24.022 -17.145  1.00  0.00     0.101 A 
HETATM    3  C   LIG     3     -25.277 -22.433 -16.468  1.00  0.00     0.002 A 
HETATM    4  C   LIG     3     -25.397 -24.419 -16.262  1.00  0.00     0.056 A 
HETATM    5  C   LIG     3     -25.528 -22.830 -15.586  1.00  0.00     0.026 A 
HETATM    6  C   LIG     3     -25.588 -23.823 -15.483  1.00  0.00     0.027 A 
ENDROOT
BRANCH   1   7
HETATM    7  N   LIG     3     -24.833 -22.633 -18.131  1.00  0.00    -0.430 N 
HETATM    8  H   LIG     3     -25.212 -22.694 -18.618  1.00  0.00     0.149 HD
HETATM    9  H   LIG     3     -24.298 -22.325 -18.191  1.00  0.00     0.149 HD
ENDBRANCH   1   7
BRANCH   2  10
HETATM   10  N   LIG     3     -24.953 -24.618 -17.925  1.00  0.00    -0.430 N 
HETATM   11  H   LIG     3     -25.355 -24.652 -18.396  1.00  0.00     0.149 HD
HETATM   12  H   LIG     3     -24.432 -24.954 -17.937  1.00  0.00     0.149 HD
ENDBRANCH   2  10
TORSDOF 10
ENDMDL
MODEL 3
REMARK VINA RESULT:      -5.7     15.325     15.449
REMARK  10 active torsions:
REMARK  status: ('A' for Active; 'I' for Inactive)
REMARK    1  A    between atoms: O_3  and  C_13 
REMARK    2  A    between atoms: O_4  and  C_14 
REMARK    3  A    between atoms: O_5  and  C_15 
REMARK    4  A    between atoms: O_6  and  C_17 
REMARK       I    between atoms: N_12  and  C_18 
REMARK    5  A    between atoms: N_12  and  C_19 
REMARK    6  A    between atoms: C_16  and  C_18 
REMARK    7  A    between atoms: C_19  and  C_20 
REMARK    8  A    between atoms: C_20  and  C_21 
REMARK    9  A    between atoms: N_29  and  C_31 
REMARK   10  A    between atoms: N_30  and  C_32 
ROOT
HETATM    1  C   LIG     3     -30.120  -9.054 -15.725  1.00  0.00     0.049 A 
HETATM    2  C   LIG     3     -29.186  -8.749 -15.540  1.00  0.00     0.101 A 
HETATM    3  C   LIG     3     -30.472  -9.048 -16.661  1.00  0.00     0.002 A 
HETATM    4  C   LIG     3     -28.604  -8.438 -16.291  1.00  0.00     0.056 A 
HETATM    5  C   LIG     3     -29.890  -8.736 -17.412  1.00  0.00     0.026 A 
HETATM    6  C   LIG     3     -28.956  -8.431 -17.227  1.00  0.00     0.027 A 
ENDROOT
BRANCH   1   7
HETATM    7  N   LIG     3     -30.702  -9.365 -14.974  1.00  0.00    -0.430 N 
HETATM    8  H   LIG     3     -30.811  -9.971 -14.897  1.00  0.00     0.149 HD
HETATM    9  H   LIG     3     -30.955  -8.953 -14.586  1.00  0.00     0.149 HD
ENDBRANCH   1   7
BRANCH   2  10
HETATM   10  N   LIG     3     -28.834  -8.756 -14.604  1.00  0.00    -0.430 N 
HETATM   11  H   LIG     3     -29.184  -8.976 -14.143  1.00  0.00     0.149 HD
HETATM   12  H   LIG     3     -28.265  -8.539 -14.486  1.00  0.00     0.149 HD
ENDBRANCH   2  10
TORSDOF 10
ENDMDL
MODEL 4
REMARK VINA RESULT:      -5.2     10.946     11.544
REMARK  10 active torsions:
REMARK  status: ('A' for Active; 'I' for Inactive)
REMARK    1  A    between atoms: O_3  and  C_13 
REMARK    2  A    between atoms: O_4  and  C_14 
REMARK    3  A    between atoms: O_5  and  C_15 
REMARK    4  A    between atoms: O_6  and  C_17 
REMARK       I    between atoms: N_12  and  C_18 
REMARK    5  A    between atoms: N_12  and  C_19 
REMARK    6  A    between atoms: C_16  and  C_18 
REMARK    7  A    between atoms: C_19  and  C_20 
REMARK    8  A    between atoms: C_20  and  C_21 
REMARK    9  A    between atoms: N_29  and  C_31 
REMARK   10  A    between atoms: N_30  and  C_32 
ROOT
HETATM    1  C   LIG     3     -22.437 -17.569  -7.138  1.00  0.00     0.049 A 
HETATM    2  C   LIG     3     -22.863 -17.241  -7.981  1.00  0.00     0.101 A 
HETATM    3  C   LIG     3     -22.948 -17.548  -6.278  1.00  0.00     0.002 A 
HETATM    4  C   LIG     3     -23.800 -16.891  -7.965  1.00  0.00     0.056 A 
HETATM    5  C   LIG     3     -23.885 -17.199  -6.262  1.00  0.00     0.026 A 
HETATM    6  C   LIG     3     -24.311 -16.870  -7.105  1.00  0.00     0.027 A 
ENDROOT
BRANCH   1   7
HETATM    7  N   LIG     3     -21.501 -17.919  -7.154  1.00  0.00    -0.430 N 
HETATM    8  H   LIG     3     -21.026 -17.531  -7.250  1.00  0.00     0.149 HD
HETATM    9  H   LIG     3     -21.394 -18.524  -7.068  1.00  0.00     0.149 HD
ENDBRANCH   1   7
BRANCH   2  10
HETATM   10  N   LIG     3     -22.352 -17.262  -8.840  1.00  0.00    -0.430 N 
HETATM   11  H   LIG     3     -22.564 -16.953  -9.334  1.00  0.00     0.149 HD
HETATM   12  H   LIG     3     -21.823 -17.584  -8.879  1.00  0.00     0.149 HD
ENDBRANCH   2  10
TORSDOF 10
ENDMDL
MODEL 5
REMARK VINA RESULT:      -5.2     10.947     11.586
REMARK  10 active torsions:
REMARK  status: ('A' for Active; 'I' for Inactive)
REMARK    1  A    between atoms: O_3  and  C_13 
REMARK    2  A    between atoms: O_4  and  C_14 
REMARK    3  A    between atoms: O_5  and  C_15 
REMARK    4  A    between atoms: O_6  and  C_17 
REMARK       I    between atoms: N_12  and  C_18 
REMARK    5  A    between atoms: N_12  and  C_19 
REMARK    6  A    between atoms: C_16  and  C_18 
REMARK    7  A    between atoms: C_19  and  C_20 
REMARK    8  A    between atoms: C_20  and  C_21 
REMARK    9  A    between atoms: N_29  and  C_31 
REMARK   10  A    between atoms: N_30  and  C_32 
ROOT
HETATM    1  C   LIG     3     -22.863 -17.241  -7.980  1.00  0.00     0.049 A 
HETATM    2  C   LIG     3     -22.440 -17.571  -7.135  1.00  0.00     0.101 A 
HETATM    3  C   LIG     3     -23.799 -16.891  -7.966  1.00  0.00     0.002 A 
HETATM    4  C   LIG     3     -22.953 -17.549  -6.278  1.00  0.00     0.056 A 
HETATM    5  C   LIG     3     -24.313 -16.869  -7.108  1.00  0.00     0.026 A 
HETATM    6  C   LIG     3     -23.890 -17.198  -6.264  1.00  0.00     0.027 A 
ENDROOT
BRANCH   1   7
HETATM    7  N   LIG     3     -22.349 -17.263  -8.837  1.00  0.00    -0.430 N 
HETATM    8  H   LIG     3     -21.857 -16.894  -8.913  1.00  0.00     0.149 HD
HETATM    9  H   LIG     3     -22.523 -17.645  -9.293  1.00  0.00     0.149 HD
ENDBRANCH   1   7
BRANCH   2  10
HETATM   10  N   LIG     3     -21.504 -17.921  -7.149  1.00  0.00    -0.430 N 
HETATM   11  H   LIG     3     -21.156 -17.859  -7.659  1.00  0.00     0.149 HD
HETATM   12  H   LIG     3     -21.270 -18.202  -6.647  1.00  0.00     0.149 HD
ENDBRANCH   2  10
TORSDOF 10
ENDMDL
MODEL 6
REMARK VINA RESULT:      -5.0      9.789     10.385
REMARK  10 active torsions:
REMARK  status: ('A' for Active; 'I' for Inactive)
REMARK    1  A    between atoms: O_3  and  C_13 
REMARK    2  A    between atoms: O_4  and  C_14 
REMARK    3  A    between atoms: O_5  and  C_15 
REMARK    4  A    between atoms: O_6  and  C_17 
REMARK       I    between atoms: N_12  and  C_18 
REMARK    5  A    between atoms: N_12  and  C_19 
REMARK    6  A    between atoms: C_16  and  C_18 
REMARK    7  A    between atoms: C_19  and  C_20 
REMARK    8  A    between atoms: C_20  and  C_21 
REMARK    9  A    between atoms: N_29  and  C_31 
REMARK   10  A    between atoms: N_30  and  C_32 
ROOT
HETATM    1  C   LIG     3     -18.982 -18.806  -9.451  1.00  0.00     0.049 A 
HETATM    2  C   LIG     3     -19.026 -19.187 -10.374  1.00  0.00     0.101 A 
HETATM    3  C   LIG     3     -18.958 -19.416  -8.659  1.00  0.00     0.002 A 
HETATM    4  C   LIG     3     -19.046 -20.178 -10.506  1.00  0.00     0.056 A 
HETATM    5  C   LIG     3     -18.978 -20.407  -8.791  1.00  0.00     0.026 A 
HETATM    6  C   LIG     3     -19.022 -20.788  -9.714  1.00  0.00     0.027 A 
ENDROOT
BRANCH   1   7
HETATM    7  N   LIG     3     -18.962 -17.815  -9.319  1.00  0.00    -0.430 N 
HETATM    8  H   LIG     3     -19.435 -17.530  -9.039  1.00  0.00     0.149 HD
HETATM    9  H   LIG     3     -18.475 -17.486  -9.518  1.00  0.00     0.149 HD
ENDBRANCH   1   7
BRANCH   2  10
HETATM   10  N   LIG     3     -19.050 -18.577 -11.166  1.00  0.00    -0.430 N 
HETATM   11  H   LIG     3     -18.917 -17.975 -11.098  1.00  0.00     0.149 HD
HETATM   12  H   LIG     3     -19.197 -18.801 -11.726  1.00  0.00     0.149 HD
ENDBRANCH   2  10
TORSDOF 10
ENDMDL
MODEL 7
REMARK VINA RESULT:      -4.9      9.703     10.368
REMARK  10 active torsions:
REMARK  status: ('A' for Active; 'I' for Inactive)
REMARK    1  A    between atoms: O_3  and  C_13 
REMARK    2  A    between atoms: O_4  and  C_14 
REMARK    3  A    between atoms: O_5  and  C_15 
REMARK    4  A    between atoms: O_6  and  C_17 
REMARK       I    between atoms: N_12  and  C_18 
REMARK    5  A    between atoms: N_12  and  C_19 
REMARK    6  A    between atoms: C_16  and  C_18 
REMARK    7  A    between atoms: C_19  and  C_20 
REMARK    8  A    between atoms: C_20  and  C_21 
REMARK    9  A    between atoms: N_29  and  C_31 
REMARK   10  A    between atoms: N_30  and  C_32 
ROOT
HETATM    1  C   LIG     3     -22.697 -13.920 -16.924  1.00  0.00     0.049 A 
HETATM    2  C   LIG     3     -23.037 -13.148 -16.387  1.00  0.00     0.101 A 
HETATM    3  C   LIG     3     -23.144 -14.168 -17.783  1.00  0.00     0.002 A 
HETATM    4  C   LIG     3     -23.825 -12.624 -16.710  1.00  0.00     0.056 A 
HETATM    5  C   LIG     3     -23.932 -13.643 -18.106  1.00  0.00     0.026 A 
HETATM    6  C   LIG     3     -24.273 -12.871 -17.569  1.00  0.00     0.027 A 
ENDROOT
BRANCH   1   7
HETATM    7  N   LIG     3     -21.909 -14.445 -16.601  1.00  0.00    -0.430 N 
HETATM    8  H   LIG     3     -21.338 -14.292 -16.788  1.00  0.00     0.149 HD
HETATM    9  H   LIG     3     -21.992 -14.922 -16.214  1.00  0.00     0.149 HD
ENDBRANCH   1   7
BRANCH   2  10
HETATM   10  N   LIG     3     -22.590 -12.900 -15.528  1.00  0.00    -0.430 N 
HETATM   11  H   LIG     3     -22.357 -13.343 -15.161  1.00  0.00     0.149 HD
HETATM   12  H   LIG     3     -22.545 -12.305 -15.362  1.00  0.00     0.149 HD
ENDBRANCH   2  10
TORSDOF 10
ENDMDL
MODEL 8
REMARK VINA RESULT:      -4.9      9.439     10.016
REMARK  10 active torsions:
REMARK  status: ('A' for Active; 'I' for Inactive)
REMARK    1  A    between atoms: O_3  and  C_13 
REMARK    2  A    between atoms: O_4  and  C_14 
REMARK    3  A    between atoms: O_5  and  C_15 
REMARK    4  A    between atoms: O_6  and  C_17 
REMARK       I    between atoms: N_12  and  C_18 
REMARK    5  A    between atoms: N_12  and  C_19 
REMARK    6  A    between atoms: C_16  and  C_18 
REMARK    7  A    between atoms: C_19  and  C_20 
REMARK    8  A    between atoms: C_20  and  C_21 
REMARK    9  A    between atoms: N_29  and  C_31 
REMARK   10  A    between atoms: N_30  and  C_32 
ROOT
HETATM    1  C   LIG     3     -18.656 -17.672 -11.375  1.00  0.00     0.049 A 
HETATM    2  C   LIG     3     -18.681 -17.107 -12.200  1.00  0.00     0.101 A 
HETATM    3  C   LIG     3     -18.899 -18.640 -11.425  1.00  0.00     0.002 A 
HETATM    4  C   LIG     3     -18.950 -17.511 -13.075  1.00  0.00     0.056 A 
HETATM    5  C   LIG     3     -19.167 -19.044 -12.300  1.00  0.00     0.026 A 
HETATM    6  C   LIG     3     -19.193 -18.479 -13.125  1.00  0.00     0.027 A 
ENDROOT
BRANCH   1   7
HETATM    7  N   LIG     3     -18.387 -17.268 -10.501  1.00  0.00    -0.430 N 
HETATM    8  H   LIG     3     -18.145 -16.697 -10.484  1.00  0.00     0.149 HD
HETATM    9  H   LIG     3     -18.463 -17.588  -9.975  1.00  0.00     0.149 HD
ENDBRANCH   1   7
BRANCH   2  10
HETATM   10  N   LIG     3     -18.438 -16.138 -12.151  1.00  0.00    -0.430 N 
HETATM   11  H   LIG     3     -18.860 -15.721 -11.971  1.00  0.00     0.149 HD
HETATM   12  H   LIG     3     -17.865 -15.954 -12.299  1.00  0.00     0.149 HD
ENDBRANCH   2  10
TORSDOF 10
ENDMDL
MODEL 9
REMARK VINA RESULT:      -4.9      9.438     10.097
REMARK  10 active torsions:
REMARK  status: ('A' for Active; 'I' for Inactive)
REMARK    1  A    between atoms: O_3  and  C_13 
REMARK    2  A    between atoms: O_4  and  C_14 
REMARK    3  A    between atoms: O_5  and  C_15 
REMARK    4  A    between atoms: O_6  and  C_17 
REMARK       I    between atoms: N_12  and  C_18 
REMARK    5  A    between atoms: N_12  and  C_19 
REMARK    6  A    between atoms: C_16  and  C_18 
REMARK    7  A    between atoms: C_19  and  C_20 
REMARK    8  A    between atoms: C_20  and  C_21 
REMARK    9  A    between atoms: N_29  and  C_31 
REMARK   10  A    between atoms: N_30  and  C_32 
ROOT
HETATM    1  C   LIG     3     -18.680 -17.078 -12.234  1.00  0.00     0.049 A 
HETATM    2  C   LIG     3     -18.648 -17.650 -11.414  1.00  0.00     0.101 A 
HETATM    3  C   LIG     3     -18.952 -17.475 -13.110  1.00  0.00     0.002 A 
HETATM    4  C   LIG     3     -18.888 -18.619 -11.471  1.00  0.00     0.056 A 
HETATM    5  C   LIG     3     -19.192 -18.444 -13.167  1.00  0.00     0.026 A 
HETATM    6  C   LIG     3     -19.160 -19.016 -12.347  1.00  0.00     0.027 A 
ENDROOT
BRANCH   1   7
HETATM    7  N   LIG     3     -18.440 -16.109 -12.177  1.00  0.00    -0.430 N 
HETATM    8  H   LIG     3     -18.538 -15.736 -12.663  1.00  0.00     0.149 HD
HETATM    9  H   LIG     3     -18.192 -15.881 -11.657  1.00  0.00     0.149 HD
ENDBRANCH   1   7
BRANCH   2  10
HETATM   10  N   LIG     3     -18.376 -17.252 -10.538  1.00  0.00    -0.430 N 
HETATM   11  H   LIG     3     -18.009 -17.572 -10.153  1.00  0.00     0.149 HD
HETATM   12  H   LIG     3     -18.573 -16.686 -10.379  1.00  0.00     0.149 HD
ENDBRANCH   2  10
TORSDOF 10
ENDMDL
