MODEL 1
REMARK VINA RESULT:      -8.9      0.000      0.000
REMARK  3 active torsions:
REMARK  status: ('A' for Active; 'I' for Inactive)
REMARK    1  A    between atoms: C_4  and  O_11 
REMARK    2  A    between atoms: O_11  and  C_12 
REMARK    3  A    between atoms: C_12  and  C_13 
ROOT
HETATM    1  N   LIG     1     -23.759 -24.040 -15.292  1.00  0.00    -0.244 NA
HETATM    2  C   LIG     1     -24.735 -21.847 -15.502  1.00  0.00     0.018 A 
HETATM    3  C   LIG     1     -23.644 -22.700 -15.234  1.00  0.00     0.083 A 
HETATM    4  C   LIG     1     -22.268 -20.732 -14.834  1.00  0.00     0.096 A 
HETATM    5  C   LIG     1     -22.423 -22.118 -14.903  1.00  0.00     0.043 A 
HETATM    6  C   LIG     1     -24.579 -20.452 -15.431  1.00  0.00     0.004 A 
HETATM    7  C   LIG     1     -23.347 -19.898 -15.098  1.00  0.00     0.024 A 
HETATM    8  C   LIG     1     -25.964 -22.432 -15.834  1.00  0.00     0.003 A 
HETATM    9  C   LIG     1     -26.086 -23.813 -15.895  1.00  0.00     0.021 A 
HETATM   10  C   LIG     1     -24.963 -24.565 -15.617  1.00  0.00     0.099 A 
ENDROOT
BRANCH   4  11
HETATM   11  O   LIG     1     -21.059 -20.198 -14.506  1.00  0.00    -0.326 OA
BRANCH  11  12
HETATM   12  C   LIG     1     -19.996 -21.112 -14.244  1.00  0.00     0.175 C 
BRANCH  12  13
HETATM   13  C   LIG     1     -19.585 -20.987 -12.807  1.00  0.00     0.008 A 
HETATM   14  C   LIG     1     -19.411 -19.725 -12.248  1.00  0.00    -0.002 A 
HETATM   15  C   LIG     1     -19.028 -19.609 -10.911  1.00  0.00    -0.000 A 
HETATM   16  C   LIG     1     -18.824 -20.754 -10.142  1.00  0.00    -0.000 A 
HETATM   17  C   LIG     1     -19.002 -22.016 -10.709  1.00  0.00    -0.000 A 
HETATM   18  C   LIG     1     -19.384 -22.133 -12.045  1.00  0.00    -0.002 A 
ENDBRANCH  12  13
ENDBRANCH  11  12
ENDBRANCH   4  11
TORSDOF 3
ENDMDL
