MODEL 1
REMARK VINA RESULT:      -6.4      0.000      0.000
REMARK  8 active torsions:
REMARK  status: ('A' for Active; 'I' for Inactive)
REMARK    1  A    between atoms: O_2  and  C_7 
REMARK    2  A    between atoms: O_2  and  C_11 
REMARK    3  A    between atoms: O_3  and  C_9 
REMARK    4  A    between atoms: O_3  and  C_19 
REMARK    5  A    between atoms: N_6  and  C_8 
REMARK       I    between atoms: N_6  and  C_19 
REMARK    6  A    between atoms: C_8  and  C_10 
REMARK    7  A    between atoms: C_8  and  C_11 
REMARK    8  A    between atoms: C_10  and  C_18 
ROOT
HETATM    1  C   LIG     1     -20.343 -17.086  -9.733  1.00  0.00     0.187 C 
ENDROOT
BRANCH   1   2
HETATM    2  N   LIG     1     -20.053 -15.874 -10.457  1.00  0.00    -0.323 N 
HETATM    3  C   LIG     1     -20.878 -15.342 -11.428  1.00  0.00     0.362 C 
HETATM    4  O   LIG     1     -21.947 -15.819 -11.797  1.00  0.00    -0.238 OA
HETATM    5  H   LIG     1     -19.188 -15.383 -10.252  1.00  0.00     0.165 HD
BRANCH   3   6
HETATM    6  O   LIG     1     -20.329 -14.194 -11.926  1.00  0.00    -0.294 OA
BRANCH   6   7
HETATM    7  C   LIG     1     -19.688 -14.310 -13.201  1.00  0.00     0.061 C 
HETATM    8  C   LIG     1     -19.398 -15.787 -13.467  1.00  0.00     0.046 C 
HETATM    9  C   LIG     1     -18.387 -13.512 -13.136  1.00  0.00     0.046 C 
HETATM   10  C   LIG     1     -20.619 -13.737 -14.269  1.00  0.00     0.046 C 
ENDBRANCH   6   7
ENDBRANCH   3   6
ENDBRANCH   1   2
BRANCH   1  11
HETATM   11  C   LIG     1     -19.061 -17.880  -9.455  1.00  0.00     0.045 C 
BRANCH  11  12
HETATM   12  C   LIG     1     -19.196 -19.383  -9.731  1.00  0.00     0.082 C 
HETATM   13  I   LIG     1     -19.203 -20.483  -7.889  1.00  0.00    -0.090 I 
ENDBRANCH  11  12
ENDBRANCH   1  11
BRANCH   1  14
HETATM   14  C   LIG     1     -21.134 -16.830  -8.459  1.00  0.00     0.282 C 
HETATM   15  O   LIG     1     -20.755 -16.056  -7.586  1.00  0.00    -0.263 OA
BRANCH  14  16
HETATM   16  O   LIG     1     -22.290 -17.552  -8.419  1.00  0.00    -0.310 OA
BRANCH  16  17
HETATM   17  C   LIG     1     -23.493 -16.791  -8.270  1.00  0.00     0.060 C 
HETATM   18  C   LIG     1     -24.077 -17.069  -6.887  1.00  0.00     0.045 C 
HETATM   19  C   LIG     1     -24.460 -17.243  -9.362  1.00  0.00     0.045 C 
HETATM   20  C   LIG     1     -23.155 -15.310  -8.432  1.00  0.00     0.045 C 
ENDBRANCH  16  17
ENDBRANCH  14  16
ENDBRANCH   1  14
TORSDOF 8
ENDMDL
MODEL 2
REMARK VINA RESULT:      -6.3      4.631      6.426
REMARK  8 active torsions:
REMARK  status: ('A' for Active; 'I' for Inactive)
REMARK    1  A    between atoms: O_2  and  C_7 
REMARK    2  A    between atoms: O_2  and  C_11 
REMARK    3  A    between atoms: O_3  and  C_9 
REMARK    4  A    between atoms: O_3  and  C_19 
REMARK    5  A    between atoms: N_6  and  C_8 
REMARK       I    between atoms: N_6  and  C_19 
REMARK    6  A    between atoms: C_8  and  C_10 
REMARK    7  A    between atoms: C_8  and  C_11 
REMARK    8  A    between atoms: C_10  and  C_18 
ROOT
HETATM    1  C   LIG     1     -21.991 -15.790 -14.174  1.00  0.00     0.187 C 
ENDROOT
BRANCH   1   2
HETATM    2  N   LIG     1     -22.134 -15.003 -15.373  1.00  0.00    -0.323 N 
HETATM    3  C   LIG     1     -22.397 -13.647 -15.376  1.00  0.00     0.362 C 
HETATM    4  O   LIG     1     -22.540 -12.945 -14.379  1.00  0.00    -0.238 OA
HETATM    5  H   LIG     1     -22.046 -15.469 -16.271  1.00  0.00     0.165 HD
BRANCH   3   6
HETATM    6  O   LIG     1     -22.475 -13.192 -16.662  1.00  0.00    -0.294 OA
BRANCH   6   7
HETATM    7  C   LIG     1     -23.794 -13.096 -17.211  1.00  0.00     0.061 C 
HETATM    8  C   LIG     1     -24.791 -13.619 -16.177  1.00  0.00     0.046 C 
HETATM    9  C   LIG     1     -23.830 -13.956 -18.473  1.00  0.00     0.046 C 
HETATM   10  C   LIG     1     -24.076 -11.633 -17.549  1.00  0.00     0.046 C 
ENDBRANCH   6   7
ENDBRANCH   3   6
ENDBRANCH   1   2
BRANCH   1  11
HETATM   11  C   LIG     1     -23.241 -16.641 -13.923  1.00  0.00     0.045 C 
BRANCH  11  12
HETATM   12  C   LIG     1     -23.912 -17.143 -15.207  1.00  0.00     0.082 C 
HETATM   13  I   LIG     1     -24.195 -19.268 -15.121  1.00  0.00    -0.090 I 
ENDBRANCH  11  12
ENDBRANCH   1  11
BRANCH   1  14
HETATM   14  C   LIG     1     -20.725 -16.636 -14.178  1.00  0.00     0.282 C 
HETATM   15  O   LIG     1     -20.735 -17.845 -13.973  1.00  0.00    -0.263 OA
BRANCH  14  16
HETATM   16  O   LIG     1     -19.612 -15.893 -14.437  1.00  0.00    -0.310 OA
BRANCH  16  17
HETATM   17  C   LIG     1     -18.901 -15.419 -13.289  1.00  0.00     0.060 C 
HETATM   18  C   LIG     1     -18.645 -16.599 -12.353  1.00  0.00     0.045 C 
HETATM   19  C   LIG     1     -19.777 -14.372 -12.605  1.00  0.00     0.045 C 
HETATM   20  C   LIG     1     -17.585 -14.797 -13.755  1.00  0.00     0.045 C 
ENDBRANCH  16  17
ENDBRANCH  14  16
ENDBRANCH   1  14
TORSDOF 8
ENDMDL
MODEL 3
REMARK VINA RESULT:      -6.2      3.467      5.180
REMARK  8 active torsions:
REMARK  status: ('A' for Active; 'I' for Inactive)
REMARK    1  A    between atoms: O_2  and  C_7 
REMARK    2  A    between atoms: O_2  and  C_11 
REMARK    3  A    between atoms: O_3  and  C_9 
REMARK    4  A    between atoms: O_3  and  C_19 
REMARK    5  A    between atoms: N_6  and  C_8 
REMARK       I    between atoms: N_6  and  C_19 
REMARK    6  A    between atoms: C_8  and  C_10 
REMARK    7  A    between atoms: C_8  and  C_11 
REMARK    8  A    between atoms: C_10  and  C_18 
ROOT
HETATM    1  C   LIG     1     -20.896 -13.578 -13.167  1.00  0.00     0.187 C 
ENDROOT
BRANCH   1   2
HETATM    2  N   LIG     1     -21.369 -13.048 -14.420  1.00  0.00    -0.323 N 
HETATM    3  C   LIG     1     -21.872 -13.826 -15.444  1.00  0.00     0.362 C 
HETATM    4  O   LIG     1     -21.982 -15.049 -15.425  1.00  0.00    -0.238 OA
HETATM    5  H   LIG     1     -21.323 -12.044 -14.568  1.00  0.00     0.165 HD
BRANCH   3   6
HETATM    6  O   LIG     1     -22.234 -13.032 -16.495  1.00  0.00    -0.294 OA
BRANCH   6   7
HETATM    7  C   LIG     1     -23.607 -13.113 -16.896  1.00  0.00     0.061 C 
HETATM    8  C   LIG     1     -23.733 -14.179 -17.985  1.00  0.00     0.046 C 
HETATM    9  C   LIG     1     -24.010 -11.743 -17.437  1.00  0.00     0.046 C 
HETATM   10  C   LIG     1     -24.450 -13.480 -15.675  1.00  0.00     0.046 C 
ENDBRANCH   6   7
ENDBRANCH   3   6
ENDBRANCH   1   2
BRANCH   1  11
HETATM   11  C   LIG     1     -19.509 -13.022 -12.821  1.00  0.00     0.045 C 
BRANCH  11  12
HETATM   12  C   LIG     1     -18.355 -13.931 -13.261  1.00  0.00     0.082 C 
HETATM   13  I   LIG     1     -18.955 -15.989 -13.188  1.00  0.00    -0.090 I 
ENDBRANCH  11  12
ENDBRANCH   1  11
BRANCH   1  14
HETATM   14  C   LIG     1     -21.887 -13.364 -12.031  1.00  0.00     0.282 C 
HETATM   15  O   LIG     1     -23.035 -12.976 -12.217  1.00  0.00    -0.263 OA
BRANCH  14  16
HETATM   16  O   LIG     1     -21.345 -13.657 -10.815  1.00  0.00    -0.310 OA
BRANCH  16  17
HETATM   17  C   LIG     1     -21.885 -14.804 -10.153  1.00  0.00     0.060 C 
HETATM   18  C   LIG     1     -22.942 -14.338  -9.154  1.00  0.00     0.045 C 
HETATM   19  C   LIG     1     -20.735 -15.503  -9.431  1.00  0.00     0.045 C 
HETATM   20  C   LIG     1     -22.499 -15.728 -11.205  1.00  0.00     0.045 C 
ENDBRANCH  16  17
ENDBRANCH  14  16
ENDBRANCH   1  14
TORSDOF 8
ENDMDL
MODEL 4
REMARK VINA RESULT:      -6.2      1.124      5.249
REMARK  8 active torsions:
REMARK  status: ('A' for Active; 'I' for Inactive)
REMARK    1  A    between atoms: O_2  and  C_7 
REMARK    2  A    between atoms: O_2  and  C_11 
REMARK    3  A    between atoms: O_3  and  C_9 
REMARK    4  A    between atoms: O_3  and  C_19 
REMARK    5  A    between atoms: N_6  and  C_8 
REMARK       I    between atoms: N_6  and  C_19 
REMARK    6  A    between atoms: C_8  and  C_10 
REMARK    7  A    between atoms: C_8  and  C_11 
REMARK    8  A    between atoms: C_10  and  C_18 
ROOT
HETATM    1  C   LIG     1     -19.814 -16.602 -10.433  1.00  0.00     0.187 C 
ENDROOT
BRANCH   1   2
HETATM    2  N   LIG     1     -20.999 -17.150  -9.822  1.00  0.00    -0.323 N 
HETATM    3  C   LIG     1     -21.387 -16.884  -8.523  1.00  0.00     0.362 C 
HETATM    4  O   LIG     1     -20.790 -16.160  -7.732  1.00  0.00    -0.238 OA
HETATM    5  H   LIG     1     -21.580 -17.776 -10.370  1.00  0.00     0.165 HD
BRANCH   3   6
HETATM    6  O   LIG     1     -22.547 -17.550  -8.241  1.00  0.00    -0.294 OA
BRANCH   6   7
HETATM    7  C   LIG     1     -23.744 -16.766  -8.288  1.00  0.00     0.061 C 
HETATM    8  C   LIG     1     -24.483 -16.927  -6.959  1.00  0.00     0.046 C 
HETATM    9  C   LIG     1     -24.595 -17.292  -9.442  1.00  0.00     0.046 C 
HETATM   10  C   LIG     1     -23.362 -15.305  -8.524  1.00  0.00     0.046 C 
ENDBRANCH   6   7
ENDBRANCH   3   6
ENDBRANCH   1   2
BRANCH   1  11
HETATM   11  C   LIG     1     -18.647 -17.594 -10.360  1.00  0.00     0.045 C 
BRANCH  11  12
HETATM   12  C   LIG     1     -19.074 -19.058 -10.522  1.00  0.00     0.082 C 
HETATM   13  I   LIG     1     -19.096 -20.046  -8.617  1.00  0.00    -0.090 I 
ENDBRANCH  11  12
ENDBRANCH   1  11
BRANCH   1  14
HETATM   14  C   LIG     1     -20.060 -16.125 -11.858  1.00  0.00     0.282 C 
HETATM   15  O   LIG     1     -20.563 -16.839 -12.718  1.00  0.00    -0.263 OA
BRANCH  14  16
HETATM   16  O   LIG     1     -19.660 -14.835 -12.043  1.00  0.00    -0.310 OA
BRANCH  16  17
HETATM   17  C   LIG     1     -20.682 -13.920 -12.449  1.00  0.00     0.060 C 
HETATM   18  C   LIG     1     -20.693 -13.847 -13.974  1.00  0.00     0.045 C 
HETATM   19  C   LIG     1     -20.343 -12.557 -11.848  1.00  0.00     0.045 C 
HETATM   20  C   LIG     1     -22.024 -14.423 -11.917  1.00  0.00     0.045 C 
ENDBRANCH  16  17
ENDBRANCH  14  16
ENDBRANCH   1  14
TORSDOF 8
ENDMDL
MODEL 5
REMARK VINA RESULT:      -6.2      4.183      6.066
REMARK  8 active torsions:
REMARK  status: ('A' for Active; 'I' for Inactive)
REMARK    1  A    between atoms: O_2  and  C_7 
REMARK    2  A    between atoms: O_2  and  C_11 
REMARK    3  A    between atoms: O_3  and  C_9 
REMARK    4  A    between atoms: O_3  and  C_19 
REMARK    5  A    between atoms: N_6  and  C_8 
REMARK       I    between atoms: N_6  and  C_19 
REMARK    6  A    between atoms: C_8  and  C_10 
REMARK    7  A    between atoms: C_8  and  C_11 
REMARK    8  A    between atoms: C_10  and  C_18 
ROOT
HETATM    1  C   LIG     1     -22.503 -15.370 -13.480  1.00  0.00     0.187 C 
ENDROOT
BRANCH   1   2
HETATM    2  N   LIG     1     -22.462 -14.759 -14.784  1.00  0.00    -0.323 N 
HETATM    3  C   LIG     1     -22.774 -13.435 -15.024  1.00  0.00     0.362 C 
HETATM    4  O   LIG     1     -23.121 -12.618 -14.177  1.00  0.00    -0.238 OA
HETATM    5  H   LIG     1     -22.198 -15.334 -15.579  1.00  0.00     0.165 HD
BRANCH   3   6
HETATM    6  O   LIG     1     -22.641 -13.162 -16.356  1.00  0.00    -0.294 OA
BRANCH   6   7
HETATM    7  C   LIG     1     -23.860 -13.089 -17.104  1.00  0.00     0.061 C 
HETATM    8  C   LIG     1     -23.713 -13.951 -18.358  1.00  0.00     0.046 C 
HETATM    9  C   LIG     1     -24.080 -11.626 -17.483  1.00  0.00     0.046 C 
HETATM   10  C   LIG     1     -25.002 -13.595 -16.225  1.00  0.00     0.046 C 
ENDBRANCH   6   7
ENDBRANCH   3   6
ENDBRANCH   1   2
BRANCH   1  11
HETATM   11  C   LIG     1     -23.214 -16.728 -13.530  1.00  0.00     0.045 C 
BRANCH  11  12
HETATM   12  C   LIG     1     -23.792 -17.069 -14.908  1.00  0.00     0.082 C 
HETATM   13  I   LIG     1     -24.265 -19.159 -15.024  1.00  0.00    -0.090 I 
ENDBRANCH  11  12
ENDBRANCH   1  11
BRANCH   1  14
HETATM   14  C   LIG     1     -21.125 -15.479 -12.842  1.00  0.00     0.282 C 
HETATM   15  O   LIG     1     -20.433 -14.499 -12.587  1.00  0.00    -0.263 OA
BRANCH  14  16
HETATM   16  O   LIG     1     -20.775 -16.773 -12.596  1.00  0.00    -0.310 OA
BRANCH  16  17
HETATM   17  C   LIG     1     -19.429 -17.127 -12.931  1.00  0.00     0.060 C 
HETATM   18  C   LIG     1     -19.000 -16.312 -14.150  1.00  0.00     0.045 C 
HETATM   19  C   LIG     1     -19.413 -18.620 -13.250  1.00  0.00     0.045 C 
HETATM   20  C   LIG     1     -18.534 -16.824 -11.730  1.00  0.00     0.045 C 
ENDBRANCH  16  17
ENDBRANCH  14  16
ENDBRANCH   1  14
TORSDOF 8
ENDMDL
MODEL 6
REMARK VINA RESULT:      -6.2      2.920      3.925
REMARK  8 active torsions:
REMARK  status: ('A' for Active; 'I' for Inactive)
REMARK    1  A    between atoms: O_2  and  C_7 
REMARK    2  A    between atoms: O_2  and  C_11 
REMARK    3  A    between atoms: O_3  and  C_9 
REMARK    4  A    between atoms: O_3  and  C_19 
REMARK    5  A    between atoms: N_6  and  C_8 
REMARK       I    between atoms: N_6  and  C_19 
REMARK    6  A    between atoms: C_8  and  C_10 
REMARK    7  A    between atoms: C_8  and  C_11 
REMARK    8  A    between atoms: C_10  and  C_18 
ROOT
HETATM    1  C   LIG     1     -21.427 -14.763  -9.698  1.00  0.00     0.187 C 
ENDROOT
BRANCH   1   2
HETATM    2  N   LIG     1     -21.219 -15.772 -10.706  1.00  0.00    -0.323 N 
HETATM    3  C   LIG     1     -20.438 -15.586 -11.829  1.00  0.00     0.362 C 
HETATM    4  O   LIG     1     -19.828 -14.560 -12.114  1.00  0.00    -0.238 OA
HETATM    5  H   LIG     1     -21.680 -16.670 -10.593  1.00  0.00     0.165 HD
BRANCH   3   6
HETATM    6  O   LIG     1     -20.440 -16.723 -12.588  1.00  0.00    -0.294 OA
BRANCH   6   7
HETATM    7  C   LIG     1     -19.167 -17.354 -12.771  1.00  0.00     0.061 C 
HETATM    8  C   LIG     1     -18.395 -17.284 -11.454  1.00  0.00     0.046 C 
HETATM    9  C   LIG     1     -18.428 -16.588 -13.867  1.00  0.00     0.046 C 
HETATM   10  C   LIG     1     -19.398 -18.804 -13.191  1.00  0.00     0.046 C 
ENDBRANCH   6   7
ENDBRANCH   3   6
ENDBRANCH   1   2
BRANCH   1  11
HETATM   11  C   LIG     1     -22.680 -13.932 -10.001  1.00  0.00     0.045 C 
BRANCH  11  12
HETATM   12  C   LIG     1     -22.375 -12.567 -10.631  1.00  0.00     0.082 C 
HETATM   13  I   LIG     1     -23.047 -12.517 -12.668  1.00  0.00    -0.090 I 
ENDBRANCH  11  12
ENDBRANCH   1  11
BRANCH   1  14
HETATM   14  C   LIG     1     -21.464 -15.343  -8.290  1.00  0.00     0.282 C 
HETATM   15  O   LIG     1     -20.449 -15.602  -7.653  1.00  0.00    -0.263 OA
BRANCH  14  16
HETATM   16  O   LIG     1     -22.739 -15.526  -7.845  1.00  0.00    -0.310 OA
BRANCH  16  17
HETATM   17  C   LIG     1     -23.193 -16.883  -7.800  1.00  0.00     0.060 C 
HETATM   18  C   LIG     1     -24.176 -17.106  -8.947  1.00  0.00     0.045 C 
HETATM   19  C   LIG     1     -23.881 -17.094  -6.453  1.00  0.00     0.045 C 
HETATM   20  C   LIG     1     -21.981 -17.805  -7.934  1.00  0.00     0.045 C 
ENDBRANCH  16  17
ENDBRANCH  14  16
ENDBRANCH   1  14
TORSDOF 8
ENDMDL
MODEL 7
REMARK VINA RESULT:      -6.1      2.170      5.203
REMARK  8 active torsions:
REMARK  status: ('A' for Active; 'I' for Inactive)
REMARK    1  A    between atoms: O_2  and  C_7 
REMARK    2  A    between atoms: O_2  and  C_11 
REMARK    3  A    between atoms: O_3  and  C_9 
REMARK    4  A    between atoms: O_3  and  C_19 
REMARK    5  A    between atoms: N_6  and  C_8 
REMARK       I    between atoms: N_6  and  C_19 
REMARK    6  A    between atoms: C_8  and  C_10 
REMARK    7  A    between atoms: C_8  and  C_11 
REMARK    8  A    between atoms: C_10  and  C_18 
ROOT
HETATM    1  C   LIG     1     -20.222 -16.154 -10.837  1.00  0.00     0.187 C 
ENDROOT
BRANCH   1   2
HETATM    2  N   LIG     1     -21.398 -16.572 -10.117  1.00  0.00    -0.323 N 
HETATM    3  C   LIG     1     -21.365 -17.318  -8.955  1.00  0.00     0.362 C 
HETATM    4  O   LIG     1     -20.350 -17.717  -8.391  1.00  0.00    -0.238 OA
HETATM    5  H   LIG     1     -22.308 -16.314 -10.487  1.00  0.00     0.165 HD
BRANCH   3   6
HETATM    6  O   LIG     1     -22.638 -17.552  -8.518  1.00  0.00    -0.294 OA
BRANCH   6   7
HETATM    7  C   LIG     1     -23.156 -16.612  -7.570  1.00  0.00     0.061 C 
HETATM    8  C   LIG     1     -22.096 -15.539  -7.322  1.00  0.00     0.046 C 
HETATM    9  C   LIG     1     -23.456 -17.376  -6.282  1.00  0.00     0.046 C 
HETATM   10  C   LIG     1     -24.432 -15.996  -8.141  1.00  0.00     0.046 C 
ENDBRANCH   6   7
ENDBRANCH   3   6
ENDBRANCH   1   2
BRANCH   1  11
HETATM   11  C   LIG     1     -19.992 -17.031 -12.074  1.00  0.00     0.045 C 
BRANCH  11  12
HETATM   12  C   LIG     1     -19.046 -18.212 -11.823  1.00  0.00     0.082 C 
HETATM   13  I   LIG     1     -19.516 -19.840 -13.139  1.00  0.00    -0.090 I 
ENDBRANCH  11  12
ENDBRANCH   1  11
BRANCH   1  14
HETATM   14  C   LIG     1     -20.251 -14.674 -11.194  1.00  0.00     0.282 C 
HETATM   15  O   LIG     1     -19.725 -14.227 -12.207  1.00  0.00    -0.263 OA
BRANCH  14  16
HETATM   16  O   LIG     1     -20.922 -13.936 -10.266  1.00  0.00    -0.310 OA
BRANCH  16  17
HETATM   17  C   LIG     1     -21.912 -13.040 -10.782  1.00  0.00     0.060 C 
HETATM   18  C   LIG     1     -21.237 -11.714 -11.127  1.00  0.00     0.045 C 
HETATM   19  C   LIG     1     -22.964 -12.840  -9.693  1.00  0.00     0.045 C 
HETATM   20  C   LIG     1     -22.539 -13.672 -12.024  1.00  0.00     0.045 C 
ENDBRANCH  16  17
ENDBRANCH  14  16
ENDBRANCH   1  14
TORSDOF 8
ENDMDL
MODEL 8
REMARK VINA RESULT:      -6.1      3.511      5.107
REMARK  8 active torsions:
REMARK  status: ('A' for Active; 'I' for Inactive)
REMARK    1  A    between atoms: O_2  and  C_7 
REMARK    2  A    between atoms: O_2  and  C_11 
REMARK    3  A    between atoms: O_3  and  C_9 
REMARK    4  A    between atoms: O_3  and  C_19 
REMARK    5  A    between atoms: N_6  and  C_8 
REMARK       I    between atoms: N_6  and  C_19 
REMARK    6  A    between atoms: C_8  and  C_10 
REMARK    7  A    between atoms: C_8  and  C_11 
REMARK    8  A    between atoms: C_10  and  C_18 
ROOT
HETATM    1  C   LIG     1     -20.795 -13.430 -12.835  1.00  0.00     0.187 C 
ENDROOT
BRANCH   1   2
HETATM    2  N   LIG     1     -21.855 -12.919 -13.667  1.00  0.00    -0.323 N 
HETATM    3  C   LIG     1     -22.916 -13.681 -14.115  1.00  0.00     0.362 C 
HETATM    4  O   LIG     1     -23.097 -14.869 -13.868  1.00  0.00    -0.238 OA
HETATM    5  H   LIG     1     -21.818 -11.945 -13.952  1.00  0.00     0.165 HD
BRANCH   3   6
HETATM    6  O   LIG     1     -23.748 -12.912 -14.880  1.00  0.00    -0.294 OA
BRANCH   6   7
HETATM    7  C   LIG     1     -23.850 -13.285 -16.259  1.00  0.00     0.061 C 
HETATM    8  C   LIG     1     -24.229 -12.047 -17.071  1.00  0.00     0.046 C 
HETATM    9  C   LIG     1     -24.937 -14.352 -16.368  1.00  0.00     0.046 C 
HETATM   10  C   LIG     1     -22.502 -13.843 -16.714  1.00  0.00     0.046 C 
ENDBRANCH   6   7
ENDBRANCH   3   6
ENDBRANCH   1   2
BRANCH   1  11
HETATM   11  C   LIG     1     -19.432 -13.269 -13.519  1.00  0.00     0.045 C 
BRANCH  11  12
HETATM   12  C   LIG     1     -18.456 -14.414 -13.220  1.00  0.00     0.082 C 
HETATM   13  I   LIG     1     -19.368 -16.307 -13.654  1.00  0.00    -0.090 I 
ENDBRANCH  11  12
ENDBRANCH   1  11
BRANCH   1  14
HETATM   14  C   LIG     1     -20.801 -12.817 -11.441  1.00  0.00     0.282 C 
HETATM   15  O   LIG     1     -20.637 -11.619 -11.243  1.00  0.00    -0.263 OA
BRANCH  14  16
HETATM   16  O   LIG     1     -21.010 -13.752 -10.471  1.00  0.00    -0.310 OA
BRANCH  16  17
HETATM   17  C   LIG     1     -22.085 -13.480  -9.567  1.00  0.00     0.060 C 
HETATM   18  C   LIG     1     -22.818 -14.788  -9.274  1.00  0.00     0.045 C 
HETATM   19  C   LIG     1     -23.017 -12.482 -10.248  1.00  0.00     0.045 C 
HETATM   20  C   LIG     1     -21.503 -12.883  -8.286  1.00  0.00     0.045 C 
ENDBRANCH  16  17
ENDBRANCH  14  16
ENDBRANCH   1  14
TORSDOF 8
ENDMDL
MODEL 9
REMARK VINA RESULT:      -6.1      3.397      6.639
REMARK  8 active torsions:
REMARK  status: ('A' for Active; 'I' for Inactive)
REMARK    1  A    between atoms: O_2  and  C_7 
REMARK    2  A    between atoms: O_2  and  C_11 
REMARK    3  A    between atoms: O_3  and  C_9 
REMARK    4  A    between atoms: O_3  and  C_19 
REMARK    5  A    between atoms: N_6  and  C_8 
REMARK       I    between atoms: N_6  and  C_19 
REMARK    6  A    between atoms: C_8  and  C_10 
REMARK    7  A    between atoms: C_8  and  C_11 
REMARK    8  A    between atoms: C_10  and  C_18 
ROOT
HETATM    1  C   LIG     1     -21.668 -13.221 -13.552  1.00  0.00     0.187 C 
ENDROOT
BRANCH   1   2
HETATM    2  N   LIG     1     -21.870 -14.014 -12.366  1.00  0.00    -0.323 N 
HETATM    3  C   LIG     1     -21.278 -13.741 -11.148  1.00  0.00     0.362 C 
HETATM    4  O   LIG     1     -20.516 -12.807 -10.917  1.00  0.00    -0.238 OA
HETATM    5  H   LIG     1     -22.475 -14.827 -12.426  1.00  0.00     0.165 HD
BRANCH   3   6
HETATM    6  O   LIG     1     -21.666 -14.671 -10.226  1.00  0.00    -0.294 OA
BRANCH   6   7
HETATM    7  C   LIG     1     -22.416 -14.172  -9.113  1.00  0.00     0.061 C 
HETATM    8  C   LIG     1     -23.140 -12.897  -9.547  1.00  0.00     0.046 C 
HETATM    9  C   LIG     1     -21.427 -13.871  -7.989  1.00  0.00     0.046 C 
HETATM   10  C   LIG     1     -23.415 -15.244  -8.678  1.00  0.00     0.046 C 
ENDBRANCH   6   7
ENDBRANCH   3   6
ENDBRANCH   1   2
BRANCH   1  11
HETATM   11  C   LIG     1     -20.700 -13.914 -14.519  1.00  0.00     0.045 C 
BRANCH  11  12
HETATM   12  C   LIG     1     -19.223 -13.616 -14.230  1.00  0.00     0.082 C 
HETATM   13  I   LIG     1     -18.236 -15.374 -13.496  1.00  0.00    -0.090 I 
ENDBRANCH  11  12
ENDBRANCH   1  11
BRANCH   1  14
HETATM   14  C   LIG     1     -22.976 -12.849 -14.236  1.00  0.00     0.282 C 
HETATM   15  O   LIG     1     -23.956 -12.449 -13.618  1.00  0.00    -0.263 OA
BRANCH  14  16
HETATM   16  O   LIG     1     -22.912 -13.011 -15.588  1.00  0.00    -0.310 OA
BRANCH  16  17
HETATM   17  C   LIG     1     -23.967 -13.781 -16.172  1.00  0.00     0.060 C 
HETATM   18  C   LIG     1     -24.023 -15.139 -15.474  1.00  0.00     0.045 C 
HETATM   19  C   LIG     1     -23.646 -13.951 -17.655  1.00  0.00     0.045 C 
HETATM   20  C   LIG     1     -25.281 -13.021 -15.991  1.00  0.00     0.045 C 
ENDBRANCH  16  17
ENDBRANCH  14  16
ENDBRANCH   1  14
TORSDOF 8
ENDMDL
