MODEL 1
REMARK VINA RESULT:      -9.7      0.000      0.000
REMARK  1 active torsions:
REMARK  status: ('A' for Active; 'I' for Inactive)
REMARK    1  A    between atoms: C_10  and  C_15 
ROOT
HETATM    1 CL   LIG     1     -18.328 -17.695 -10.220  1.00  0.00    -0.084 Cl
HETATM    2  N   LIG     1     -22.271 -13.800 -12.344  1.00  0.00    -0.300 N 
HETATM    3  N   LIG     1     -22.757 -13.294  -9.370  1.00  0.00    -0.282 NA
HETATM    4  N   LIG     1     -23.556 -12.683 -13.797  1.00  0.00    -0.245 NA
HETATM    5  C   LIG     1     -21.401 -14.778 -11.809  1.00  0.00     0.053 A 
HETATM    6  C   LIG     1     -22.723 -12.670 -11.693  1.00  0.00     0.056 A 
HETATM    7  C   LIG     1     -21.330 -15.034 -10.424  1.00  0.00     0.022 A 
HETATM    8  C   LIG     1     -22.290 -12.306 -10.324  1.00  0.00     0.208 C 
HETATM    9  C   LIG     1     -22.319 -14.506  -9.427  1.00  0.00     0.077 C 
HETATM   10  C   LIG     1     -22.778 -13.727 -13.623  1.00  0.00     0.107 A 
HETATM   11  C   LIG     1     -23.527 -12.021 -12.602  1.00  0.00     0.145 A 
HETATM   12  C   LIG     1     -20.563 -15.482 -12.689  1.00  0.00     0.032 A 
HETATM   13  C   LIG     1     -20.357 -15.930  -9.946  1.00  0.00     0.040 A 
HETATM   14  C   LIG     1     -22.649 -14.779 -14.658  1.00  0.00     0.091 C 
HETATM   15  C   LIG     1     -19.621 -16.387 -12.196  1.00  0.00     0.026 A 
HETATM   16  C   LIG     1     -19.508 -16.598 -10.827  1.00  0.00     0.035 A 
ENDROOT
BRANCH   9  17
HETATM   17  C   LIG     1     -22.879 -15.454  -8.420  1.00  0.00     0.032 A 
HETATM   18  C   LIG     1     -22.183 -15.699  -7.244  1.00  0.00     0.129 A 
HETATM   19  F   LIG     1     -21.011 -15.094  -6.997  1.00  0.00    -0.205 F 
HETATM   20  C   LIG     1     -22.710 -16.584  -6.304  1.00  0.00     0.043 A 
HETATM   21  C   LIG     1     -23.927 -17.218  -6.548  1.00  0.00     0.003 A 
HETATM   22  C   LIG     1     -24.619 -16.966  -7.734  1.00  0.00     0.001 A 
HETATM   23  C   LIG     1     -24.093 -16.080  -8.673  1.00  0.00     0.017 A 
ENDBRANCH   9  17
TORSDOF 1
ENDMDL
