MODEL 1
REMARK VINA RESULT:      -8.9      0.000      0.000
REMARK  1 active torsions:
REMARK  status: ('A' for Active; 'I' for Inactive)
REMARK    1  A    between atoms: C_7  and  C_21 
ROOT
HETATM    1  O   LIG     1     -21.509 -14.259  -6.709  1.00  0.00    -0.291 OA
HETATM    2  C   LIG     1     -23.251 -14.935 -14.118  1.00  0.00     0.000 C 
HETATM    3  C   LIG     1     -23.205 -13.652 -14.976  1.00  0.00     0.006 C 
HETATM    4  C   LIG     1     -22.192 -14.951 -13.011  1.00  0.00     0.001 C 
HETATM    5  C   LIG     1     -22.426 -13.726 -12.072  1.00  0.00     0.004 C 
HETATM    6  C   LIG     1     -21.409 -13.673 -10.868  1.00  0.00     0.016 C 
HETATM    7  C   LIG     1     -24.321 -13.989 -15.989  1.00  0.00     0.058 C 
HETATM    8  C   LIG     1     -23.509 -12.463 -14.054  1.00  0.00     0.000 C 
HETATM    9  C   LIG     1     -22.528 -12.397 -12.870  1.00  0.00     0.000 C 
HETATM   10  C   LIG     1     -23.256 -16.053 -15.155  1.00  0.00     0.000 C 
HETATM   11  C   LIG     1     -22.248 -16.252 -12.201  1.00  0.00     0.004 C 
HETATM   12  C   LIG     1     -24.112 -15.485 -16.302  1.00  0.00     0.007 C 
HETATM   13  C   LIG     1     -21.357 -15.045 -10.181  1.00  0.00    -0.042 C 
HETATM   14  C   LIG     1     -21.850 -13.425 -15.695  1.00  0.00     0.000 C 
HETATM   15  C   LIG     1     -21.215 -16.249 -11.081  1.00  0.00     0.022 C 
HETATM   16  C   LIG     1     -21.898 -12.592  -9.861  1.00  0.00     0.012 C 
HETATM   17  C   LIG     1     -19.980 -13.313 -11.335  1.00  0.00     0.004 C 
HETATM   18  C   LIG     1     -21.238 -12.688  -8.495  1.00  0.00     0.070 C 
HETATM   19  C   LIG     1     -21.406 -15.219  -8.849  1.00  0.00     0.029 C 
HETATM   20  C   LIG     1     -21.421 -14.067  -7.919  1.00  0.00     0.172 C 
ENDROOT
BRANCH   7  21
HETATM   21  C   LIG     1     -24.313 -13.141 -17.223  1.00  0.00     0.151 C 
HETATM   22  O   LIG     1     -24.594 -11.944 -17.185  1.00  0.00    -0.296 OA
HETATM   23  C   LIG     1     -23.943 -13.825 -18.511  1.00  0.00     0.072 C 
ENDBRANCH   7  21
TORSDOF 1
ENDMDL
