MODEL 1
REMARK VINA RESULT:      -9.1      0.000      0.000
REMARK  1 active torsions:
REMARK  status: ('A' for Active; 'I' for Inactive)
REMARK    1  A    between atoms: O_1  and  C_10 
ROOT
HETATM    1  O   LIG     1     -19.139 -21.920 -10.615  1.00  0.00    -0.293 OA
HETATM    2  C   LIG     1     -21.407 -15.085 -13.163  1.00  0.00     0.001 C 
HETATM    3  C   LIG     1     -21.427 -13.926 -12.148  1.00  0.00    -0.014 C 
HETATM    4  C   LIG     1     -20.269 -16.078 -12.904  1.00  0.00    -0.004 C 
HETATM    5  C   LIG     1     -20.444 -16.681 -11.475  1.00  0.00     0.002 C 
HETATM    6  C   LIG     1     -19.343 -17.754 -11.125  1.00  0.00    -0.016 C 
HETATM    7  C   LIG     1     -21.673 -14.520 -10.755  1.00  0.00     0.012 C 
HETATM    8  C   LIG     1     -20.612 -15.575 -10.395  1.00  0.00     0.007 C 
HETATM    9  C   LIG     1     -22.604 -13.113 -12.718  1.00  0.00     0.126 C 
HETATM   10  C   LIG     1     -21.484 -14.377 -14.513  1.00  0.00     0.008 C 
HETATM   11  C   LIG     1     -20.256 -17.199 -13.951  1.00  0.00     0.010 C 
HETATM   12  C   LIG     1     -22.383 -13.156 -14.244  1.00  0.00     0.033 C 
HETATM   13  C   LIG     1     -19.230 -18.767 -12.271  1.00  0.00    -0.068 C 
HETATM   14  C   LIG     1     -19.145 -18.201 -13.670  1.00  0.00     0.035 C 
HETATM   15  C   LIG     1     -20.139 -13.065 -12.124  1.00  0.00     0.018 C 
HETATM   16  C   LIG     1     -19.765 -18.479  -9.814  1.00  0.00     0.022 C 
HETATM   17  C   LIG     1     -17.954 -17.109 -10.914  1.00  0.00     0.020 C 
HETATM   18  C   LIG     1     -19.008 -19.773  -9.561  1.00  0.00     0.084 C 
HETATM   19  C   LIG     1     -19.181 -20.098 -12.097  1.00  0.00     0.053 C 
HETATM   20  C   LIG     1     -19.139 -20.697 -10.743  1.00  0.00     0.149 C 
ENDROOT
BRANCH   9  21
HETATM   21  O   LIG     1     -22.645 -11.785 -12.233  1.00  0.00    -0.395 OA
HETATM   22  H   LIG     1     -23.572 -11.527 -12.100  1.00  0.00     0.210 HD
ENDBRANCH   9  21
TORSDOF 1
ENDMDL
