MODEL 1
REMARK VINA RESULT:      -9.4      0.000      0.000
REMARK  1 active torsions:
REMARK  status: ('A' for Active; 'I' for Inactive)
REMARK    1  A    between atoms: O_1  and  C_10 
ROOT
HETATM    1  O   LIG     1     -19.121 -21.929 -10.670  1.00  0.00    -0.293 OA
HETATM    2  C   LIG     1     -21.406 -15.088 -13.189  1.00  0.00     0.001 C 
HETATM    3  C   LIG     1     -21.444 -13.938 -12.165  1.00  0.00    -0.014 C 
HETATM    4  C   LIG     1     -20.265 -16.076 -12.926  1.00  0.00    -0.004 C 
HETATM    5  C   LIG     1     -20.451 -16.691 -11.503  1.00  0.00     0.002 C 
HETATM    6  C   LIG     1     -19.346 -17.760 -11.151  1.00  0.00    -0.016 C 
HETATM    7  C   LIG     1     -21.700 -14.544 -10.779  1.00  0.00     0.012 C 
HETATM    8  C   LIG     1     -20.636 -15.595 -10.417  1.00  0.00     0.007 C 
HETATM    9  C   LIG     1     -22.620 -13.127 -12.741  1.00  0.00     0.126 C 
HETATM   10  C   LIG     1     -21.475 -14.371 -14.534  1.00  0.00     0.008 C 
HETATM   11  C   LIG     1     -20.235 -17.189 -13.981  1.00  0.00     0.010 C 
HETATM   12  C   LIG     1     -22.384 -13.158 -14.265  1.00  0.00     0.033 C 
HETATM   13  C   LIG     1     -19.215 -18.764 -12.303  1.00  0.00    -0.068 C 
HETATM   14  C   LIG     1     -19.120 -18.187 -13.697  1.00  0.00     0.035 C 
HETATM   15  C   LIG     1     -20.161 -13.069 -12.122  1.00  0.00     0.018 C 
HETATM   16  C   LIG     1     -19.777 -18.498  -9.850  1.00  0.00     0.022 C 
HETATM   17  C   LIG     1     -17.963 -17.108 -10.920  1.00  0.00     0.020 C 
HETATM   18  C   LIG     1     -19.014 -19.789  -9.599  1.00  0.00     0.084 C 
HETATM   19  C   LIG     1     -19.160 -20.095 -12.139  1.00  0.00     0.053 C 
HETATM   20  C   LIG     1     -19.128 -20.705 -10.789  1.00  0.00     0.149 C 
ENDROOT
BRANCH   9  21
HETATM   21  O   LIG     1     -22.675 -11.803 -12.247  1.00  0.00    -0.395 OA
HETATM   22  H   LIG     1     -23.604 -11.557 -12.107  1.00  0.00     0.210 HD
ENDBRANCH   9  21
TORSDOF 1
ENDMDL
