MODEL 1
REMARK VINA RESULT:      -9.9      0.000      0.000
REMARK  1 active torsions:
REMARK  status: ('A' for Active; 'I' for Inactive)
REMARK    1  A    between atoms: O_1  and  C_10 
ROOT
HETATM    1  O   LIG     1     -23.596 -22.369 -15.653  1.00  0.00    -0.293 OA
HETATM    2  C   LIG     1     -23.522 -17.759  -9.562  1.00  0.00     0.001 C 
HETATM    3  C   LIG     1     -22.151 -17.240  -9.088  1.00  0.00    -0.014 C 
HETATM    4  C   LIG     1     -23.599 -17.922 -11.083  1.00  0.00    -0.004 C 
HETATM    5  C   LIG     1     -22.506 -18.942 -11.535  1.00  0.00     0.002 C 
HETATM    6  C   LIG     1     -22.530 -19.215 -13.088  1.00  0.00    -0.016 C 
HETATM    7  C   LIG     1     -21.091 -18.281  -9.471  1.00  0.00     0.012 C 
HETATM    8  C   LIG     1     -21.102 -18.569 -10.982  1.00  0.00     0.007 C 
HETATM    9  C   LIG     1     -22.432 -17.131  -7.578  1.00  0.00     0.126 C 
HETATM   10  C   LIG     1     -24.514 -16.834  -8.861  1.00  0.00     0.008 C 
HETATM   11  C   LIG     1     -24.986 -18.407 -11.524  1.00  0.00     0.010 C 
HETATM   12  C   LIG     1     -23.853 -16.536  -7.504  1.00  0.00     0.033 C 
HETATM   13  C   LIG     1     -23.965 -19.530 -13.532  1.00  0.00    -0.068 C 
HETATM   14  C   LIG     1     -25.047 -18.601 -13.033  1.00  0.00     0.035 C 
HETATM   15  C   LIG     1     -21.750 -15.857  -9.663  1.00  0.00     0.018 C 
HETATM   16  C   LIG     1     -21.604 -20.431 -13.384  1.00  0.00     0.022 C 
HETATM   17  C   LIG     1     -22.031 -17.997 -13.898  1.00  0.00     0.020 C 
HETATM   18  C   LIG     1     -21.816 -21.038 -14.762  1.00  0.00     0.084 C 
HETATM   19  C   LIG     1     -24.295 -20.550 -14.340  1.00  0.00     0.053 C 
HETATM   20  C   LIG     1     -23.260 -21.415 -14.952  1.00  0.00     0.149 C 
ENDROOT
BRANCH   9  21
HETATM   21  O   LIG     1     -21.490 -16.324  -6.897  1.00  0.00    -0.395 OA
HETATM   22  H   LIG     1     -21.808 -16.163  -5.994  1.00  0.00     0.210 HD
ENDBRANCH   9  21
TORSDOF 1
ENDMDL
