MODEL 1
REMARK VINA RESULT:      -9.1      0.000      0.000
REMARK  1 active torsions:
REMARK  status: ('A' for Active; 'I' for Inactive)
REMARK    1  A    between atoms: O_1  and  C_10 
ROOT
HETATM    1  O   LIG     1     -19.132 -21.863 -10.542  1.00  0.00    -0.293 OA
HETATM    2  C   LIG     1     -21.420 -15.070 -13.186  1.00  0.00     0.001 C 
HETATM    3  C   LIG     1     -21.446 -13.899 -12.186  1.00  0.00    -0.014 C 
HETATM    4  C   LIG     1     -20.279 -16.056 -12.912  1.00  0.00    -0.004 C 
HETATM    5  C   LIG     1     -20.454 -16.640 -11.474  1.00  0.00     0.002 C 
HETATM    6  C   LIG     1     -19.349 -17.705 -11.109  1.00  0.00    -0.016 C 
HETATM    7  C   LIG     1     -21.692 -14.474 -10.785  1.00  0.00     0.012 C 
HETATM    8  C   LIG     1     -20.628 -15.521 -10.410  1.00  0.00     0.007 C 
HETATM    9  C   LIG     1     -22.624 -13.097 -12.769  1.00  0.00     0.126 C 
HETATM   10  C   LIG     1     -21.497 -14.381 -14.545  1.00  0.00     0.008 C 
HETATM   11  C   LIG     1     -20.261 -17.191 -13.943  1.00  0.00     0.010 C 
HETATM   12  C   LIG     1     -22.401 -13.160 -14.294  1.00  0.00     0.033 C 
HETATM   13  C   LIG     1     -19.232 -18.733 -12.241  1.00  0.00    -0.068 C 
HETATM   14  C   LIG     1     -19.146 -18.186 -13.647  1.00  0.00     0.035 C 
HETATM   15  C   LIG     1     -20.160 -13.033 -12.172  1.00  0.00     0.018 C 
HETATM   16  C   LIG     1     -19.772 -18.414  -9.789  1.00  0.00     0.022 C 
HETATM   17  C   LIG     1     -17.963 -17.052 -10.904  1.00  0.00     0.020 C 
HETATM   18  C   LIG     1     -19.010 -19.702  -9.517  1.00  0.00     0.084 C 
HETATM   19  C   LIG     1     -19.179 -20.061 -12.049  1.00  0.00     0.053 C 
HETATM   20  C   LIG     1     -19.136 -20.642 -10.686  1.00  0.00     0.149 C 
ENDROOT
BRANCH   9  21
HETATM   21  O   LIG     1     -22.671 -11.762 -12.302  1.00  0.00    -0.395 OA
HETATM   22  H   LIG     1     -21.969 -11.252 -12.737  1.00  0.00     0.210 HD
ENDBRANCH   9  21
TORSDOF 1
ENDMDL
