MODEL 1
REMARK VINA RESULT:      -8.7      0.000      0.000
REMARK  1 active torsions:
REMARK  status: ('A' for Active; 'I' for Inactive)
REMARK    1  A    between atoms: C_7  and  C_10 
ROOT
HETATM    1 CL   LIG     1     -18.756 -17.771 -12.590  1.00  0.00    -0.084 Cl
HETATM    2  O   LIG     1     -24.950 -13.831 -16.005  1.00  0.00    -0.271 OA
HETATM    3  N   LIG     1     -23.739 -15.606 -15.103  1.00  0.00    -0.320 N 
HETATM    4  N   LIG     1     -22.549 -13.015 -14.058  1.00  0.00    -0.279 NA
HETATM    5  C   LIG     1     -21.746 -15.298 -13.620  1.00  0.00     0.022 A 
HETATM    6  C   LIG     1     -22.556 -16.098 -14.453  1.00  0.00     0.049 A 
HETATM    7  C   LIG     1     -22.121 -13.906 -13.230  1.00  0.00     0.074 C 
HETATM    8  C   LIG     1     -22.687 -13.398 -15.447  1.00  0.00     0.252 C 
HETATM    9  C   LIG     1     -23.905 -14.283 -15.532  1.00  0.00     0.243 C 
HETATM   10  C   LIG     1     -20.564 -15.818 -13.062  1.00  0.00     0.040 A 
HETATM   11  C   LIG     1     -22.177 -17.443 -14.632  1.00  0.00     0.032 A 
HETATM   12  C   LIG     1     -24.812 -16.558 -15.392  1.00  0.00     0.159 C 
HETATM   13  C   LIG     1     -20.199 -17.143 -13.285  1.00  0.00     0.035 A 
HETATM   14  C   LIG     1     -21.012 -17.959 -14.059  1.00  0.00     0.026 A 
ENDROOT
BRANCH   7  15
HETATM   15  C   LIG     1     -22.018 -13.506 -11.797  1.00  0.00    -0.007 A 
HETATM   16  C   LIG     1     -21.183 -12.456 -11.435  1.00  0.00     0.014 A 
HETATM   17  C   LIG     1     -21.088 -12.081 -10.095  1.00  0.00     0.001 A 
HETATM   18  C   LIG     1     -21.828 -12.759  -9.127  1.00  0.00     0.000 A 
HETATM   19  C   LIG     1     -22.663 -13.814  -9.499  1.00  0.00     0.001 A 
HETATM   20  C   LIG     1     -22.759 -14.188 -10.839  1.00  0.00     0.014 A 
ENDBRANCH   7  15
TORSDOF 1
ENDMDL
