MODEL 1
REMARK VINA RESULT:      -6.7      0.000      0.000
REMARK  4 active torsions:
REMARK  status: ('A' for Active; 'I' for Inactive)
REMARK    1  A    between atoms: C_4  and  C_6 
REMARK    2  A    between atoms: C_5  and  C_14 
REMARK    3  A    between atoms: C_7  and  N_16 
REMARK    4  A    between atoms: C_10  and  N_19 
ROOT
HETATM    1  N   LIG     1     -20.187 -12.997 -12.061  1.00  0.00    -0.066 NA
HETATM    2  N   LIG     1     -19.215 -15.173 -12.417  1.00  0.00    -0.045 NA
HETATM    3  C   LIG     1     -20.920 -14.875 -10.742  1.00  0.00     0.048 A 
HETATM    4  C   LIG     1     -20.961 -13.541 -11.099  1.00  0.00     0.080 A 
HETATM    5  C   LIG     1     -20.019 -15.651 -11.443  1.00  0.00     0.153 A 
HETATM    6  C   LIG     1     -19.349 -13.857 -12.670  1.00  0.00     0.722 A 
ENDROOT
BRANCH   3   7
HETATM    7  C   LIG     1     -21.772 -15.413  -9.703  1.00  0.00     0.004 A 
HETATM    8  C   LIG     1     -22.997 -15.990 -10.034  1.00  0.00     0.001 A 
HETATM    9  C   LIG     1     -23.818 -16.508  -9.032  1.00  0.00     0.011 A 
HETATM   10  C   LIG     1     -23.412 -16.448  -7.698  1.00  0.00     0.058 A 
HETATM   11 CL   LIG     1     -24.425 -17.085  -6.462  1.00  0.00    -0.082 Cl
HETATM   12  C   LIG     1     -22.187 -15.870  -7.367  1.00  0.00     0.011 A 
HETATM   13  C   LIG     1     -21.366 -15.352  -8.369  1.00  0.00     0.001 A 
ENDBRANCH   3   7
BRANCH   5  14
HETATM   14  N   LIG     1     -19.921 -17.031 -11.134  1.00  0.00    -0.383 N 
HETATM   15  H   LIG     1     -20.109 -17.675 -11.892  1.00  0.00     0.157 HD
HETATM   16  H   LIG     1     -19.262 -17.327 -10.425  1.00  0.00     0.157 HD
ENDBRANCH   5  14
BRANCH   4  17
HETATM   17  C   LIG     1     -21.894 -12.592 -10.417  1.00  0.00     0.047 C 
HETATM   18  C   LIG     1     -23.105 -12.257 -11.283  1.00  0.00     0.007 C 
ENDBRANCH   4  17
BRANCH   6  19
HETATM   19  N   LIG     1     -18.524 -13.323 -13.682  1.00  0.00    -0.231 N 
HETATM   20  H   LIG     1     -18.172 -12.380 -13.592  1.00  0.00     0.174 HD
HETATM   21  H   LIG     1     -18.295 -13.890 -14.487  1.00  0.00     0.174 HD
ENDBRANCH   6  19
TORSDOF 4
ENDMDL
