MODEL 1
REMARK VINA RESULT:      -9.0      0.000      0.000
REMARK  3 active torsions:
REMARK  status: ('A' for Active; 'I' for Inactive)
REMARK    1  A    between atoms: C_4  and  O_11 
REMARK    2  A    between atoms: O_11  and  C_12 
REMARK    3  A    between atoms: C_12  and  C_13 
ROOT
HETATM    1  N   LIG     1     -21.969 -17.755  -7.102  1.00  0.00    -0.244 NA
HETATM    2  C   LIG     1     -23.057 -16.502  -8.848  1.00  0.00     0.018 A 
HETATM    3  C   LIG     1     -21.945 -17.192  -8.324  1.00  0.00     0.083 A 
HETATM    4  C   LIG     1     -20.740 -16.711 -10.384  1.00  0.00     0.096 A 
HETATM    5  C   LIG     1     -20.800 -17.283  -9.111  1.00  0.00     0.043 A 
HETATM    6  C   LIG     1     -22.997 -15.925 -10.129  1.00  0.00     0.004 A 
HETATM    7  C   LIG     1     -21.839 -16.031 -10.893  1.00  0.00     0.024 A 
HETATM    8  C   LIG     1     -24.210 -16.410  -8.056  1.00  0.00     0.003 A 
HETATM    9  C   LIG     1     -24.239 -16.989  -6.796  1.00  0.00     0.021 A 
HETATM   10  C   LIG     1     -23.101 -17.645  -6.369  1.00  0.00     0.099 A 
ENDROOT
BRANCH   4  11
HETATM   11  O   LIG     1     -19.602 -16.818 -11.125  1.00  0.00    -0.326 OA
BRANCH  11  12
HETATM   12  C   LIG     1     -18.732 -17.906 -10.823  1.00  0.00     0.175 C 
BRANCH  12  13
HETATM   13  C   LIG     1     -19.063 -19.062 -11.720  1.00  0.00     0.008 A 
HETATM   14  C   LIG     1     -19.106 -20.350 -11.197  1.00  0.00    -0.002 A 
HETATM   15  C   LIG     1     -19.414 -21.425 -12.032  1.00  0.00    -0.000 A 
HETATM   16  C   LIG     1     -19.678 -21.205 -13.383  1.00  0.00    -0.000 A 
HETATM   17  C   LIG     1     -19.634 -19.911 -13.901  1.00  0.00    -0.000 A 
HETATM   18  C   LIG     1     -19.326 -18.836 -13.067  1.00  0.00    -0.002 A 
ENDBRANCH  12  13
ENDBRANCH  11  12
ENDBRANCH   4  11
TORSDOF 3
ENDMDL
