MODEL 1
REMARK VINA RESULT:      -9.9      0.000      0.000
REMARK  9 active torsions:
REMARK  status: ('A' for Active; 'I' for Inactive)
REMARK    1  A    between atoms: O_3  and  C_15 
REMARK    2  A    between atoms: O_3  and  C_24 
REMARK    3  A    between atoms: O_4  and  C_30 
REMARK    4  A    between atoms: O_4  and  C_32 
REMARK    5  A    between atoms: O_5  and  C_23 
REMARK    6  A    between atoms: N_11  and  C_22 
REMARK       I    between atoms: N_11  and  C_31 
REMARK    7  A    between atoms: N_12  and  C_28 
REMARK    8  A    between atoms: C_24  and  C_32 
REMARK    9  A    between atoms: C_30  and  C_31 
ROOT
HETATM    1  O   LIG     1     -22.125 -16.262 -14.491  1.00  0.00    -0.310 OA
ENDROOT
BRANCH   1   2
HETATM    2  C   LIG     1     -23.556 -16.241 -14.498  1.00  0.00     0.281 C 
BRANCH   2   3
HETATM    3  C   LIG     1     -24.066 -17.659 -14.362  1.00  0.00     0.246 C 
HETATM    4  O   LIG     1     -24.915 -17.938 -13.522  1.00  0.00    -0.271 OA
HETATM    5  N   LIG     1     -23.462 -18.508 -15.281  1.00  0.00    -0.323 N 
HETATM    6  H   LIG     1     -22.772 -18.105 -15.910  1.00  0.00     0.169 HD
BRANCH   5   7
HETATM    7  C   LIG     1     -23.688 -19.895 -15.450  1.00  0.00     0.068 A 
HETATM    8  C   LIG     1     -22.758 -20.829 -14.993  1.00  0.00     0.097 A 
HETATM    9  C   LIG     1     -22.995 -22.192 -15.166  1.00  0.00     0.075 A 
HETATM   10  C   LIG     1     -24.162 -22.623 -15.795  1.00  0.00     0.105 A 
HETATM   11  C   LIG     1     -25.093 -21.690 -16.252  1.00  0.00     0.038 A 
HETATM   12  C   LIG     1     -24.857 -20.325 -16.079  1.00  0.00     0.035 A 
BRANCH   8  13
HETATM   13  O   LIG     1     -21.609 -20.428 -14.376  1.00  0.00    -0.354 OA
HETATM   14  C   LIG     1     -20.610 -21.421 -14.160  1.00  0.00     0.210 C 
ENDBRANCH   8  13
BRANCH  10  15
HETATM   15  N   LIG     1     -24.404 -24.010 -15.973  1.00  0.00    -0.116 N 
HETATM   16  O   LIG     1     -24.353 -24.771 -14.977  1.00  0.00    -0.532 OA
HETATM   17  O   LIG     1     -24.664 -24.438 -17.124  1.00  0.00    -0.532 OA
ENDBRANCH  10  15
ENDBRANCH   5   7
ENDBRANCH   2   3
ENDBRANCH   1   2
BRANCH   1  18
HETATM   18  C   LIG     1     -21.525 -15.268 -13.771  1.00  0.00     0.283 C 
HETATM   19  O   LIG     1     -20.729 -14.446 -14.203  1.00  0.00    -0.263 OA
BRANCH  18  20
HETATM   20  C   LIG     1     -22.000 -15.344 -12.344  1.00  0.00     0.286 C 
BRANCH  20  21
HETATM   21  O   LIG     1     -20.895 -15.104 -11.479  1.00  0.00    -0.337 OA
BRANCH  21  22
HETATM   22  C   LIG     1     -20.423 -16.175 -10.770  1.00  0.00     0.120 A 
HETATM   23  C   LIG     1     -21.173 -16.656  -9.700  1.00  0.00     0.104 A 
HETATM   24  N   LIG     1     -22.342 -16.069  -9.378  1.00  0.00    -0.250 NA
HETATM   25  C   LIG     1     -20.671 -17.760  -8.979  1.00  0.00     0.017 A 
HETATM   26  C   LIG     1     -23.041 -16.566  -8.332  1.00  0.00     0.031 A 
HETATM   27  C   LIG     1     -22.631 -17.641  -7.569  1.00  0.00     0.027 A 
HETATM   28  C   LIG     1     -24.330 -15.887  -8.010  1.00  0.00     0.070 C 
HETATM   29  C   LIG     1     -21.427 -18.243  -7.902  1.00  0.00     0.017 A 
HETATM   30  C   LIG     1     -19.448 -18.346  -9.342  1.00  0.00     0.048 A 
HETATM   31 CL   LIG     1     -18.765 -19.705  -8.508  1.00  0.00    -0.083 Cl
HETATM   32  C   LIG     1     -18.717 -17.847 -10.416  1.00  0.00     0.051 A 
HETATM   33  C   LIG     1     -19.205 -16.760 -11.131  1.00  0.00     0.071 A 
HETATM   34 CL   LIG     1     -18.286 -16.153 -12.459  1.00  0.00    -0.081 Cl
ENDBRANCH  21  22
ENDBRANCH  20  21
ENDBRANCH  18  20
ENDBRANCH   1  18
TORSDOF 9
ENDMDL
MODEL 2
REMARK VINA RESULT:      -9.8      4.092      6.531
REMARK  9 active torsions:
REMARK  status: ('A' for Active; 'I' for Inactive)
REMARK    1  A    between atoms: O_3  and  C_15 
REMARK    2  A    between atoms: O_3  and  C_24 
REMARK    3  A    between atoms: O_4  and  C_30 
REMARK    4  A    between atoms: O_4  and  C_32 
REMARK    5  A    between atoms: O_5  and  C_23 
REMARK    6  A    between atoms: N_11  and  C_22 
REMARK       I    between atoms: N_11  and  C_31 
REMARK    7  A    between atoms: N_12  and  C_28 
REMARK    8  A    between atoms: C_24  and  C_32 
REMARK    9  A    between atoms: C_30  and  C_31 
ROOT
HETATM    1  O   LIG     1     -20.908 -15.409  -9.597  1.00  0.00    -0.310 OA
ENDROOT
BRANCH   1   2
HETATM    2  C   LIG     1     -21.368 -14.059  -9.723  1.00  0.00     0.281 C 
BRANCH   2   3
HETATM    3  C   LIG     1     -21.349 -13.671 -11.184  1.00  0.00     0.246 C 
HETATM    4  O   LIG     1     -20.409 -13.031 -11.647  1.00  0.00    -0.271 OA
HETATM    5  N   LIG     1     -22.478 -14.131 -11.850  1.00  0.00    -0.323 N 
HETATM    6  H   LIG     1     -23.164 -14.651 -11.307  1.00  0.00     0.169 HD
BRANCH   5   7
HETATM    7  C   LIG     1     -22.802 -13.961 -13.217  1.00  0.00     0.068 A 
HETATM    8  C   LIG     1     -22.751 -15.039 -14.101  1.00  0.00     0.097 A 
HETATM    9  C   LIG     1     -23.073 -14.856 -15.445  1.00  0.00     0.075 A 
HETATM   10  C   LIG     1     -23.447 -13.595 -15.907  1.00  0.00     0.105 A 
HETATM   11  C   LIG     1     -23.499 -12.516 -15.024  1.00  0.00     0.038 A 
HETATM   12  C   LIG     1     -23.177 -12.699 -13.679  1.00  0.00     0.035 A 
BRANCH   8  13
HETATM   13  O   LIG     1     -22.386 -16.281 -13.669  1.00  0.00    -0.354 OA
HETATM   14  C   LIG     1     -22.602 -17.367 -14.566  1.00  0.00     0.210 C 
ENDBRANCH   8  13
BRANCH  10  15
HETATM   15  N   LIG     1     -23.775 -13.406 -17.275  1.00  0.00    -0.116 N 
HETATM   16  O   LIG     1     -24.357 -12.351 -17.623  1.00  0.00    -0.532 OA
HETATM   17  O   LIG     1     -23.471 -14.301 -18.101  1.00  0.00    -0.532 OA
ENDBRANCH  10  15
ENDBRANCH   5   7
ENDBRANCH   2   3
ENDBRANCH   1   2
BRANCH   1  18
HETATM   18  C   LIG     1     -20.570 -15.800  -8.333  1.00  0.00     0.283 C 
HETATM   19  O   LIG     1     -20.385 -15.060  -7.376  1.00  0.00    -0.263 OA
BRANCH  18  20
HETATM   20  C   LIG     1     -20.459 -17.301  -8.298  1.00  0.00     0.286 C 
BRANCH  20  21
HETATM   21  O   LIG     1     -19.198 -17.680  -8.838  1.00  0.00    -0.337 OA
BRANCH  21  22
HETATM   22  C   LIG     1     -19.186 -18.764  -9.675  1.00  0.00     0.120 A 
HETATM   23  C   LIG     1     -19.153 -18.549 -11.050  1.00  0.00     0.104 A 
HETATM   24  N   LIG     1     -19.134 -17.293 -11.537  1.00  0.00    -0.250 NA
HETATM   25  C   LIG     1     -19.142 -19.676 -11.899  1.00  0.00     0.017 A 
HETATM   26  C   LIG     1     -19.103 -17.128 -12.879  1.00  0.00     0.031 A 
HETATM   27  C   LIG     1     -19.090 -18.168 -13.787  1.00  0.00     0.027 A 
HETATM   28  C   LIG     1     -19.083 -15.721 -13.376  1.00  0.00     0.070 C 
HETATM   29  C   LIG     1     -19.110 -19.459 -13.283  1.00  0.00     0.017 A 
HETATM   30  C   LIG     1     -19.164 -20.971 -11.356  1.00  0.00     0.048 A 
HETATM   31 CL   LIG     1     -19.151 -22.406 -12.331  1.00  0.00    -0.083 Cl
HETATM   32  C   LIG     1     -19.195 -21.158  -9.977  1.00  0.00     0.051 A 
HETATM   33  C   LIG     1     -19.207 -20.053  -9.136  1.00  0.00     0.071 A 
HETATM   34 CL   LIG     1     -19.247 -20.303  -7.429  1.00  0.00    -0.081 Cl
ENDBRANCH  21  22
ENDBRANCH  20  21
ENDBRANCH  18  20
ENDBRANCH   1  18
TORSDOF 9
ENDMDL
MODEL 3
REMARK VINA RESULT:      -9.7      1.818      2.566
REMARK  9 active torsions:
REMARK  status: ('A' for Active; 'I' for Inactive)
REMARK    1  A    between atoms: O_3  and  C_15 
REMARK    2  A    between atoms: O_3  and  C_24 
REMARK    3  A    between atoms: O_4  and  C_30 
REMARK    4  A    between atoms: O_4  and  C_32 
REMARK    5  A    between atoms: O_5  and  C_23 
REMARK    6  A    between atoms: N_11  and  C_22 
REMARK       I    between atoms: N_11  and  C_31 
REMARK    7  A    between atoms: N_12  and  C_28 
REMARK    8  A    between atoms: C_24  and  C_32 
REMARK    9  A    between atoms: C_30  and  C_31 
ROOT
HETATM    1  O   LIG     1     -20.272 -16.439 -14.426  1.00  0.00    -0.310 OA
ENDROOT
BRANCH   1   2
HETATM    2  C   LIG     1     -21.596 -15.923 -14.252  1.00  0.00     0.281 C 
BRANCH   2   3
HETATM    3  C   LIG     1     -22.564 -17.081 -14.153  1.00  0.00     0.246 C 
HETATM    4  O   LIG     1     -23.594 -16.978 -13.494  1.00  0.00    -0.271 OA
HETATM    5  N   LIG     1     -22.123 -18.178 -14.881  1.00  0.00    -0.323 N 
HETATM    6  H   LIG     1     -21.237 -18.089 -15.374  1.00  0.00     0.169 HD
BRANCH   5   7
HETATM    7  C   LIG     1     -22.763 -19.433 -15.023  1.00  0.00     0.068 A 
HETATM    8  C   LIG     1     -22.076 -20.617 -14.755  1.00  0.00     0.097 A 
HETATM    9  C   LIG     1     -22.720 -21.845 -14.899  1.00  0.00     0.075 A 
HETATM   10  C   LIG     1     -24.052 -21.890 -15.309  1.00  0.00     0.105 A 
HETATM   11  C   LIG     1     -24.740 -20.706 -15.576  1.00  0.00     0.038 A 
HETATM   12  C   LIG     1     -24.096 -19.477 -15.433  1.00  0.00     0.035 A 
BRANCH   8  13
HETATM   13  O   LIG     1     -20.773 -20.594 -14.354  1.00  0.00    -0.354 OA
HETATM   14  C   LIG     1     -20.258 -21.783 -13.761  1.00  0.00     0.210 C 
ENDBRANCH   8  13
BRANCH  10  15
HETATM   15  N   LIG     1     -24.709 -23.140 -15.456  1.00  0.00    -0.116 N 
HETATM   16  O   LIG     1     -25.963 -23.169 -15.490  1.00  0.00    -0.532 OA
HETATM   17  O   LIG     1     -24.017 -24.183 -15.550  1.00  0.00    -0.532 OA
ENDBRANCH  10  15
ENDBRANCH   5   7
ENDBRANCH   2   3
ENDBRANCH   1   2
BRANCH   1  18
HETATM   18  C   LIG     1     -19.399 -16.175 -13.411  1.00  0.00     0.283 C 
HETATM   19  O   LIG     1     -18.591 -15.257 -13.377  1.00  0.00    -0.263 OA
BRANCH  18  20
HETATM   20  C   LIG     1     -19.582 -17.204 -12.327  1.00  0.00     0.286 C 
BRANCH  20  21
HETATM   21  O   LIG     1     -19.219 -16.625 -11.078  1.00  0.00    -0.337 OA
BRANCH  21  22
HETATM   22  C   LIG     1     -20.123 -16.746 -10.056  1.00  0.00     0.120 A 
HETATM   23  C   LIG     1     -21.039 -15.718  -9.846  1.00  0.00     0.104 A 
HETATM   24  N   LIG     1     -21.027 -14.630 -10.640  1.00  0.00    -0.250 NA
HETATM   25  C   LIG     1     -21.962 -15.858  -8.788  1.00  0.00     0.017 A 
HETATM   26  C   LIG     1     -21.934 -13.655 -10.401  1.00  0.00     0.031 A 
HETATM   27  C   LIG     1     -22.874 -13.702  -9.392  1.00  0.00     0.027 A 
HETATM   28  C   LIG     1     -21.886 -12.468 -11.304  1.00  0.00     0.070 C 
HETATM   29  C   LIG     1     -22.883 -14.824  -8.576  1.00  0.00     0.017 A 
HETATM   30  C   LIG     1     -21.945 -17.006  -7.979  1.00  0.00     0.048 A 
HETATM   31 CL   LIG     1     -23.046 -17.253  -6.662  1.00  0.00    -0.083 Cl
HETATM   32  C   LIG     1     -21.019 -18.019  -8.212  1.00  0.00     0.051 A 
HETATM   33  C   LIG     1     -20.107 -17.888  -9.251  1.00  0.00     0.071 A 
HETATM   34 CL   LIG     1     -18.965 -19.153  -9.525  1.00  0.00    -0.081 Cl
ENDBRANCH  21  22
ENDBRANCH  20  21
ENDBRANCH  18  20
ENDBRANCH   1  18
TORSDOF 9
ENDMDL
MODEL 4
REMARK VINA RESULT:      -9.7      2.046      2.930
REMARK  9 active torsions:
REMARK  status: ('A' for Active; 'I' for Inactive)
REMARK    1  A    between atoms: O_3  and  C_15 
REMARK    2  A    between atoms: O_3  and  C_24 
REMARK    3  A    between atoms: O_4  and  C_30 
REMARK    4  A    between atoms: O_4  and  C_32 
REMARK    5  A    between atoms: O_5  and  C_23 
REMARK    6  A    between atoms: N_11  and  C_22 
REMARK       I    between atoms: N_11  and  C_31 
REMARK    7  A    between atoms: N_12  and  C_28 
REMARK    8  A    between atoms: C_24  and  C_32 
REMARK    9  A    between atoms: C_30  and  C_31 
ROOT
HETATM    1  O   LIG     1     -20.559 -16.034 -13.632  1.00  0.00    -0.310 OA
ENDROOT
BRANCH   1   2
HETATM    2  C   LIG     1     -21.840 -15.729 -14.193  1.00  0.00     0.281 C 
BRANCH   2   3
HETATM    3  C   LIG     1     -22.727 -16.948 -14.078  1.00  0.00     0.246 C 
HETATM    4  O   LIG     1     -23.715 -16.934 -13.350  1.00  0.00    -0.271 OA
HETATM    5  N   LIG     1     -22.271 -17.988 -14.877  1.00  0.00    -0.323 N 
HETATM    6  H   LIG     1     -21.427 -17.826 -15.422  1.00  0.00     0.169 HD
BRANCH   5   7
HETATM    7  C   LIG     1     -22.842 -19.275 -15.027  1.00  0.00     0.068 A 
HETATM    8  C   LIG     1     -22.105 -20.420 -14.727  1.00  0.00     0.097 A 
HETATM    9  C   LIG     1     -22.682 -21.681 -14.879  1.00  0.00     0.075 A 
HETATM   10  C   LIG     1     -23.996 -21.797 -15.331  1.00  0.00     0.105 A 
HETATM   11  C   LIG     1     -24.734 -20.651 -15.631  1.00  0.00     0.038 A 
HETATM   12  C   LIG     1     -24.157 -19.390 -15.478  1.00  0.00     0.035 A 
BRANCH   8  13
HETATM   13  O   LIG     1     -20.818 -20.328 -14.285  1.00  0.00    -0.354 OA
HETATM   14  C   LIG     1     -20.073 -21.541 -14.206  1.00  0.00     0.210 C 
ENDBRANCH   8  13
BRANCH  10  15
HETATM   15  N   LIG     1     -24.584 -23.079 -15.487  1.00  0.00    -0.116 N 
HETATM   16  O   LIG     1     -25.809 -23.160 -15.746  1.00  0.00    -0.532 OA
HETATM   17  O   LIG     1     -23.862 -24.098 -15.363  1.00  0.00    -0.532 OA
ENDBRANCH  10  15
ENDBRANCH   5   7
ENDBRANCH   2   3
ENDBRANCH   1   2
BRANCH   1  18
HETATM   18  C   LIG     1     -20.016 -15.062 -12.842  1.00  0.00     0.283 C 
HETATM   19  O   LIG     1     -18.827 -14.786 -12.755  1.00  0.00    -0.263 OA
BRANCH  18  20
HETATM   20  C   LIG     1     -21.119 -14.373 -12.083  1.00  0.00     0.286 C 
BRANCH  20  21
HETATM   21  O   LIG     1     -20.758 -14.305 -10.709  1.00  0.00    -0.337 OA
BRANCH  21  22
HETATM   22  C   LIG     1     -21.591 -14.931  -9.820  1.00  0.00     0.120 A 
HETATM   23  C   LIG     1     -21.215 -16.169  -9.306  1.00  0.00     0.104 A 
HETATM   24  N   LIG     1     -20.051 -16.732  -9.683  1.00  0.00    -0.250 NA
HETATM   25  C   LIG     1     -22.086 -16.801  -8.393  1.00  0.00     0.017 A 
HETATM   26  C   LIG     1     -19.724 -17.936  -9.160  1.00  0.00     0.031 A 
HETATM   27  C   LIG     1     -20.509 -18.629  -8.261  1.00  0.00     0.027 A 
HETATM   28  C   LIG     1     -18.426 -18.523  -9.604  1.00  0.00     0.070 C 
HETATM   29  C   LIG     1     -21.708 -18.047  -7.875  1.00  0.00     0.017 A 
HETATM   30  C   LIG     1     -23.293 -16.185  -8.022  1.00  0.00     0.048 A 
HETATM   31 CL   LIG     1     -24.415 -16.895  -6.906  1.00  0.00    -0.083 Cl
HETATM   32  C   LIG     1     -23.644 -14.946  -8.551  1.00  0.00     0.051 A 
HETATM   33  C   LIG     1     -22.792 -14.319  -9.451  1.00  0.00     0.071 A 
HETATM   34 CL   LIG     1     -23.244 -12.784 -10.098  1.00  0.00    -0.081 Cl
ENDBRANCH  21  22
ENDBRANCH  20  21
ENDBRANCH  18  20
ENDBRANCH   1  18
TORSDOF 9
ENDMDL
MODEL 5
REMARK VINA RESULT:      -9.5      2.344      3.796
REMARK  9 active torsions:
REMARK  status: ('A' for Active; 'I' for Inactive)
REMARK    1  A    between atoms: O_3  and  C_15 
REMARK    2  A    between atoms: O_3  and  C_24 
REMARK    3  A    between atoms: O_4  and  C_30 
REMARK    4  A    between atoms: O_4  and  C_32 
REMARK    5  A    between atoms: O_5  and  C_23 
REMARK    6  A    between atoms: N_11  and  C_22 
REMARK       I    between atoms: N_11  and  C_31 
REMARK    7  A    between atoms: N_12  and  C_28 
REMARK    8  A    between atoms: C_24  and  C_32 
REMARK    9  A    between atoms: C_30  and  C_31 
ROOT
HETATM    1  O   LIG     1     -22.598 -13.376 -12.433  1.00  0.00    -0.310 OA
ENDROOT
BRANCH   1   2
HETATM    2  C   LIG     1     -21.657 -13.463 -13.508  1.00  0.00     0.281 C 
BRANCH   2   3
HETATM    3  C   LIG     1     -22.081 -14.575 -14.441  1.00  0.00     0.246 C 
HETATM    4  O   LIG     1     -21.914 -14.470 -15.653  1.00  0.00    -0.271 OA
HETATM    5  N   LIG     1     -22.636 -15.642 -13.745  1.00  0.00    -0.323 N 
HETATM    6  H   LIG     1     -22.697 -15.560 -12.733  1.00  0.00     0.169 HD
BRANCH   5   7
HETATM    7  C   LIG     1     -23.140 -16.851 -14.280  1.00  0.00     0.068 A 
HETATM    8  C   LIG     1     -22.295 -17.938 -14.502  1.00  0.00     0.097 A 
HETATM    9  C   LIG     1     -22.807 -19.124 -15.029  1.00  0.00     0.075 A 
HETATM   10  C   LIG     1     -24.164 -19.223 -15.335  1.00  0.00     0.105 A 
HETATM   11  C   LIG     1     -25.010 -18.135 -15.113  1.00  0.00     0.038 A 
HETATM   12  C   LIG     1     -24.498 -16.949 -14.585  1.00  0.00     0.035 A 
BRANCH   8  13
HETATM   13  O   LIG     1     -20.965 -17.862 -14.211  1.00  0.00    -0.354 OA
HETATM   14  C   LIG     1     -20.332 -19.056 -13.758  1.00  0.00     0.210 C 
ENDBRANCH   8  13
BRANCH  10  15
HETATM   15  N   LIG     1     -24.687 -20.428 -15.873  1.00  0.00    -0.116 N 
HETATM   16  O   LIG     1     -24.594 -21.485 -15.204  1.00  0.00    -0.532 OA
HETATM   17  O   LIG     1     -25.229 -20.402 -17.004  1.00  0.00    -0.532 OA
ENDBRANCH  10  15
ENDBRANCH   5   7
ENDBRANCH   2   3
ENDBRANCH   1   2
BRANCH   1  18
HETATM   18  C   LIG     1     -22.119 -12.839 -11.273  1.00  0.00     0.283 C 
HETATM   19  O   LIG     1     -21.485 -11.798 -11.170  1.00  0.00    -0.263 OA
BRANCH  18  20
HETATM   20  C   LIG     1     -22.494 -13.739 -10.125  1.00  0.00     0.286 C 
BRANCH  20  21
HETATM   21  O   LIG     1     -22.706 -15.055 -10.623  1.00  0.00    -0.337 OA
BRANCH  21  22
HETATM   22  C   LIG     1     -22.076 -16.074  -9.961  1.00  0.00     0.120 A 
HETATM   23  C   LIG     1     -20.820 -16.484 -10.399  1.00  0.00     0.104 A 
HETATM   24  N   LIG     1     -20.244 -15.880 -11.457  1.00  0.00    -0.250 NA
HETATM   25  C   LIG     1     -20.186 -17.536  -9.706  1.00  0.00     0.017 A 
HETATM   26  C   LIG     1     -19.022 -16.309 -11.850  1.00  0.00     0.031 A 
HETATM   27  C   LIG     1     -18.325 -17.329 -11.235  1.00  0.00     0.027 A 
HETATM   28  C   LIG     1     -18.420 -15.612 -13.025  1.00  0.00     0.070 C 
HETATM   29  C   LIG     1     -18.921 -17.949 -10.147  1.00  0.00     0.017 A 
HETATM   30  C   LIG     1     -20.816 -18.144  -8.608  1.00  0.00     0.048 A 
HETATM   31 CL   LIG     1     -20.103 -19.441  -7.704  1.00  0.00    -0.083 Cl
HETATM   32  C   LIG     1     -22.073 -17.715  -8.190  1.00  0.00     0.051 A 
HETATM   33  C   LIG     1     -22.704 -16.679  -8.868  1.00  0.00     0.071 A 
HETATM   34 CL   LIG     1     -24.262 -16.160  -8.337  1.00  0.00    -0.081 Cl
ENDBRANCH  21  22
ENDBRANCH  20  21
ENDBRANCH  18  20
ENDBRANCH   1  18
TORSDOF 9
ENDMDL
MODEL 6
REMARK VINA RESULT:      -9.5      1.940      2.584
REMARK  9 active torsions:
REMARK  status: ('A' for Active; 'I' for Inactive)
REMARK    1  A    between atoms: O_3  and  C_15 
REMARK    2  A    between atoms: O_3  and  C_24 
REMARK    3  A    between atoms: O_4  and  C_30 
REMARK    4  A    between atoms: O_4  and  C_32 
REMARK    5  A    between atoms: O_5  and  C_23 
REMARK    6  A    between atoms: N_11  and  C_22 
REMARK       I    between atoms: N_11  and  C_31 
REMARK    7  A    between atoms: N_12  and  C_28 
REMARK    8  A    between atoms: C_24  and  C_32 
REMARK    9  A    between atoms: C_30  and  C_31 
ROOT
HETATM    1  O   LIG     1     -22.469 -13.556 -12.560  1.00  0.00    -0.310 OA
ENDROOT
BRANCH   1   2
HETATM    2  C   LIG     1     -22.265 -13.223 -13.937  1.00  0.00     0.281 C 
BRANCH   2   3
HETATM    3  C   LIG     1     -22.682 -14.398 -14.792  1.00  0.00     0.246 C 
HETATM    4  O   LIG     1     -22.739 -14.292 -16.013  1.00  0.00    -0.271 OA
HETATM    5  N   LIG     1     -22.958 -15.519 -14.019  1.00  0.00    -0.323 N 
HETATM    6  H   LIG     1     -22.858 -15.430 -13.010  1.00  0.00     0.169 HD
BRANCH   5   7
HETATM    7  C   LIG     1     -23.373 -16.796 -14.469  1.00  0.00     0.068 A 
HETATM    8  C   LIG     1     -22.454 -17.837 -14.600  1.00  0.00     0.097 A 
HETATM    9  C   LIG     1     -22.878 -19.089 -15.044  1.00  0.00     0.075 A 
HETATM   10  C   LIG     1     -24.220 -19.301 -15.356  1.00  0.00     0.105 A 
HETATM   11  C   LIG     1     -25.140 -18.260 -15.224  1.00  0.00     0.038 A 
HETATM   12  C   LIG     1     -24.716 -17.007 -14.780  1.00  0.00     0.035 A 
BRANCH   8  13
HETATM   13  O   LIG     1     -21.137 -17.650 -14.301  1.00  0.00    -0.354 OA
HETATM   14  C   LIG     1     -20.413 -18.784 -13.830  1.00  0.00     0.210 C 
ENDBRANCH   8  13
BRANCH  10  15
HETATM   15  N   LIG     1     -24.654 -20.575 -15.809  1.00  0.00    -0.116 N 
HETATM   16  O   LIG     1     -24.481 -21.575 -15.072  1.00  0.00    -0.532 OA
HETATM   17  O   LIG     1     -25.199 -20.665 -16.936  1.00  0.00    -0.532 OA
ENDBRANCH  10  15
ENDBRANCH   5   7
ENDBRANCH   2   3
ENDBRANCH   1   2
BRANCH   1  18
HETATM   18  C   LIG     1     -21.677 -12.890 -11.670  1.00  0.00     0.283 C 
HETATM   19  O   LIG     1     -21.735 -11.696 -11.407  1.00  0.00    -0.263 OA
BRANCH  18  20
HETATM   20  C   LIG     1     -20.707 -13.863 -11.054  1.00  0.00     0.286 C 
BRANCH  20  21
HETATM   21  O   LIG     1     -21.057 -15.181 -11.463  1.00  0.00    -0.337 OA
BRANCH  21  22
HETATM   22  C   LIG     1     -20.557 -16.213 -10.714  1.00  0.00     0.120 A 
HETATM   23  C   LIG     1     -21.304 -16.684  -9.638  1.00  0.00     0.104 A 
HETATM   24  N   LIG     1     -22.496 -16.127  -9.348  1.00  0.00    -0.250 NA
HETATM   25  C   LIG     1     -20.774 -17.747  -8.876  1.00  0.00     0.017 A 
HETATM   26  C   LIG     1     -23.190 -16.615  -8.294  1.00  0.00     0.031 A 
HETATM   27  C   LIG     1     -22.753 -17.650  -7.492  1.00  0.00     0.027 A 
HETATM   28  C   LIG     1     -24.505 -15.970  -8.008  1.00  0.00     0.070 C 
HETATM   29  C   LIG     1     -21.525 -18.221  -7.793  1.00  0.00     0.017 A 
HETATM   30  C   LIG     1     -19.527 -18.303  -9.206  1.00  0.00     0.048 A 
HETATM   31 CL   LIG     1     -18.808 -19.610  -8.321  1.00  0.00    -0.083 Cl
HETATM   32  C   LIG     1     -18.801 -17.813 -10.288  1.00  0.00     0.051 A 
HETATM   33  C   LIG     1     -19.316 -16.766 -11.042  1.00  0.00     0.071 A 
HETATM   34 CL   LIG     1     -18.402 -16.171 -12.380  1.00  0.00    -0.081 Cl
ENDBRANCH  21  22
ENDBRANCH  20  21
ENDBRANCH  18  20
ENDBRANCH   1  18
TORSDOF 9
ENDMDL
MODEL 7
REMARK VINA RESULT:      -9.5      3.955      6.724
REMARK  9 active torsions:
REMARK  status: ('A' for Active; 'I' for Inactive)
REMARK    1  A    between atoms: O_3  and  C_15 
REMARK    2  A    between atoms: O_3  and  C_24 
REMARK    3  A    between atoms: O_4  and  C_30 
REMARK    4  A    between atoms: O_4  and  C_32 
REMARK    5  A    between atoms: O_5  and  C_23 
REMARK    6  A    between atoms: N_11  and  C_22 
REMARK       I    between atoms: N_11  and  C_31 
REMARK    7  A    between atoms: N_12  and  C_28 
REMARK    8  A    between atoms: C_24  and  C_32 
REMARK    9  A    between atoms: C_30  and  C_31 
ROOT
HETATM    1  O   LIG     1     -22.633 -13.408 -11.176  1.00  0.00    -0.310 OA
ENDROOT
BRANCH   1   2
HETATM    2  C   LIG     1     -21.901 -12.834 -10.088  1.00  0.00     0.281 C 
BRANCH   2   3
HETATM    3  C   LIG     1     -21.204 -13.942  -9.330  1.00  0.00     0.246 C 
HETATM    4  O   LIG     1     -20.691 -13.721  -8.237  1.00  0.00    -0.271 OA
HETATM    5  N   LIG     1     -21.252 -15.144 -10.023  1.00  0.00    -0.323 N 
HETATM    6  H   LIG     1     -21.723 -15.147 -10.925  1.00  0.00     0.169 HD
BRANCH   5   7
HETATM    7  C   LIG     1     -20.711 -16.390  -9.626  1.00  0.00     0.068 A 
HETATM    8  C   LIG     1     -21.384 -17.198  -8.709  1.00  0.00     0.097 A 
HETATM    9  C   LIG     1     -20.839 -18.424  -8.328  1.00  0.00     0.075 A 
HETATM   10  C   LIG     1     -19.622 -18.843  -8.864  1.00  0.00     0.105 A 
HETATM   11  C   LIG     1     -18.948 -18.036  -9.782  1.00  0.00     0.038 A 
HETATM   12  C   LIG     1     -19.494 -16.809 -10.163  1.00  0.00     0.035 A 
BRANCH   8  13
HETATM   13  O   LIG     1     -22.575 -16.806  -8.173  1.00  0.00    -0.354 OA
HETATM   14  C   LIG     1     -22.699 -16.873  -6.755  1.00  0.00     0.210 C 
ENDBRANCH   8  13
BRANCH  10  15
HETATM   15  N   LIG     1     -19.065 -20.090  -8.476  1.00  0.00    -0.116 N 
HETATM   16  O   LIG     1     -18.727 -20.909  -9.364  1.00  0.00    -0.532 OA
HETATM   17  O   LIG     1     -18.924 -20.338  -7.254  1.00  0.00    -0.532 OA
ENDBRANCH  10  15
ENDBRANCH   5   7
ENDBRANCH   2   3
ENDBRANCH   1   2
BRANCH   1  18
HETATM   18  C   LIG     1     -22.495 -12.773 -12.377  1.00  0.00     0.283 C 
HETATM   19  O   LIG     1     -23.403 -12.309 -13.054  1.00  0.00    -0.263 OA
BRANCH  18  20
HETATM   20  C   LIG     1     -21.036 -12.735 -12.747  1.00  0.00     0.286 C 
BRANCH  20  21
HETATM   21  O   LIG     1     -20.855 -13.430 -13.975  1.00  0.00    -0.337 OA
BRANCH  21  22
HETATM   22  C   LIG     1     -20.484 -14.746 -13.892  1.00  0.00     0.120 A 
HETATM   23  C   LIG     1     -21.405 -15.727 -14.250  1.00  0.00     0.104 A 
HETATM   24  N   LIG     1     -22.636 -15.376 -14.671  1.00  0.00    -0.250 NA
HETATM   25  C   LIG     1     -21.007 -17.077 -14.157  1.00  0.00     0.017 A 
HETATM   26  C   LIG     1     -23.501 -16.360 -15.009  1.00  0.00     0.031 A 
HETATM   27  C   LIG     1     -23.202 -17.706 -14.952  1.00  0.00     0.027 A 
HETATM   28  C   LIG     1     -24.852 -15.928 -15.470  1.00  0.00     0.070 C 
HETATM   29  C   LIG     1     -21.934 -18.064 -14.518  1.00  0.00     0.017 A 
HETATM   30  C   LIG     1     -19.716 -17.406 -13.714  1.00  0.00     0.048 A 
HETATM   31 CL   LIG     1     -19.151 -19.040 -13.573  1.00  0.00    -0.083 Cl
HETATM   32  C   LIG     1     -18.814 -16.406 -13.362  1.00  0.00     0.051 A 
HETATM   33  C   LIG     1     -19.199 -15.074 -13.451  1.00  0.00     0.071 A 
HETATM   34 CL   LIG     1     -18.069 -13.847 -13.010  1.00  0.00    -0.081 Cl
ENDBRANCH  21  22
ENDBRANCH  20  21
ENDBRANCH  18  20
ENDBRANCH   1  18
TORSDOF 9
ENDMDL
MODEL 8
REMARK VINA RESULT:      -9.2      2.254      3.539
REMARK  9 active torsions:
REMARK  status: ('A' for Active; 'I' for Inactive)
REMARK    1  A    between atoms: O_3  and  C_15 
REMARK    2  A    between atoms: O_3  and  C_24 
REMARK    3  A    between atoms: O_4  and  C_30 
REMARK    4  A    between atoms: O_4  and  C_32 
REMARK    5  A    between atoms: O_5  and  C_23 
REMARK    6  A    between atoms: N_11  and  C_22 
REMARK       I    between atoms: N_11  and  C_31 
REMARK    7  A    between atoms: N_12  and  C_28 
REMARK    8  A    between atoms: C_24  and  C_32 
REMARK    9  A    between atoms: C_30  and  C_31 
ROOT
HETATM    1  O   LIG     1     -19.863 -15.825 -12.872  1.00  0.00    -0.310 OA
ENDROOT
BRANCH   1   2
HETATM    2  C   LIG     1     -20.698 -16.106 -14.000  1.00  0.00     0.281 C 
BRANCH   2   3
HETATM    3  C   LIG     1     -20.974 -17.593 -14.045  1.00  0.00     0.246 C 
HETATM    4  O   LIG     1     -20.122 -18.396 -13.677  1.00  0.00    -0.271 OA
HETATM    5  N   LIG     1     -22.250 -17.860 -14.525  1.00  0.00    -0.323 N 
HETATM    6  H   LIG     1     -22.829 -17.066 -14.786  1.00  0.00     0.169 HD
BRANCH   5   7
HETATM    7  C   LIG     1     -22.855 -19.128 -14.704  1.00  0.00     0.068 A 
HETATM    8  C   LIG     1     -24.235 -19.283 -14.570  1.00  0.00     0.097 A 
HETATM    9  C   LIG     1     -24.816 -20.537 -14.751  1.00  0.00     0.075 A 
HETATM   10  C   LIG     1     -24.019 -21.637 -15.064  1.00  0.00     0.105 A 
HETATM   11  C   LIG     1     -22.639 -21.483 -15.198  1.00  0.00     0.038 A 
HETATM   12  C   LIG     1     -22.057 -20.228 -15.018  1.00  0.00     0.035 A 
BRANCH   8  13
HETATM   13  O   LIG     1     -25.032 -18.219 -14.263  1.00  0.00    -0.354 OA
HETATM   14  C   LIG     1     -25.507 -17.432 -15.352  1.00  0.00     0.210 C 
ENDBRANCH   8  13
BRANCH  10  15
HETATM   15  N   LIG     1     -24.610 -22.915 -15.247  1.00  0.00    -0.116 N 
HETATM   16  O   LIG     1     -23.896 -23.940 -15.122  1.00  0.00    -0.532 OA
HETATM   17  O   LIG     1     -25.831 -22.985 -15.527  1.00  0.00    -0.532 OA
ENDBRANCH  10  15
ENDBRANCH   5   7
ENDBRANCH   2   3
ENDBRANCH   1   2
BRANCH   1  18
HETATM   18  C   LIG     1     -19.691 -14.502 -12.582  1.00  0.00     0.283 C 
HETATM   19  O   LIG     1     -18.694 -13.835 -12.825  1.00  0.00    -0.263 OA
BRANCH  18  20
HETATM   20  C   LIG     1     -20.934 -13.983 -11.908  1.00  0.00     0.286 C 
BRANCH  20  21
HETATM   21  O   LIG     1     -20.705 -13.926 -10.505  1.00  0.00    -0.337 OA
BRANCH  21  22
HETATM   22  C   LIG     1     -21.559 -14.643  -9.710  1.00  0.00     0.120 A 
HETATM   23  C   LIG     1     -21.166 -15.903  -9.268  1.00  0.00     0.104 A 
HETATM   24  N   LIG     1     -19.964 -16.398  -9.622  1.00  0.00    -0.250 NA
HETATM   25  C   LIG     1     -22.058 -16.629  -8.451  1.00  0.00     0.017 A 
HETATM   26  C   LIG     1     -19.620 -17.626  -9.171  1.00  0.00     0.031 A 
HETATM   27  C   LIG     1     -20.425 -18.409  -8.368  1.00  0.00     0.027 A 
HETATM   28  C   LIG     1     -18.280 -18.136  -9.585  1.00  0.00     0.070 C 
HETATM   29  C   LIG     1     -21.662 -17.897  -8.007  1.00  0.00     0.017 A 
HETATM   30  C   LIG     1     -23.305 -16.083  -8.103  1.00  0.00     0.048 A 
HETATM   31 CL   LIG     1     -24.456 -16.910  -7.104  1.00  0.00    -0.083 Cl
HETATM   32  C   LIG     1     -23.673 -14.820  -8.559  1.00  0.00     0.051 A 
HETATM   33  C   LIG     1     -22.800 -14.100  -9.363  1.00  0.00     0.071 A 
HETATM   34 CL   LIG     1     -23.273 -12.536  -9.920  1.00  0.00    -0.081 Cl
ENDBRANCH  21  22
ENDBRANCH  20  21
ENDBRANCH  18  20
ENDBRANCH   1  18
TORSDOF 9
ENDMDL
MODEL 9
REMARK VINA RESULT:      -9.0      4.220      6.958
REMARK  9 active torsions:
REMARK  status: ('A' for Active; 'I' for Inactive)
REMARK    1  A    between atoms: O_3  and  C_15 
REMARK    2  A    between atoms: O_3  and  C_24 
REMARK    3  A    between atoms: O_4  and  C_30 
REMARK    4  A    between atoms: O_4  and  C_32 
REMARK    5  A    between atoms: O_5  and  C_23 
REMARK    6  A    between atoms: N_11  and  C_22 
REMARK       I    between atoms: N_11  and  C_31 
REMARK    7  A    between atoms: N_12  and  C_28 
REMARK    8  A    between atoms: C_24  and  C_32 
REMARK    9  A    between atoms: C_30  and  C_31 
ROOT
HETATM    1  O   LIG     1     -21.996 -12.737 -11.657  1.00  0.00    -0.310 OA
ENDROOT
BRANCH   1   2
HETATM    2  C   LIG     1     -22.757 -13.423 -10.658  1.00  0.00     0.281 C 
BRANCH   2   3
HETATM    3  C   LIG     1     -22.363 -14.884 -10.659  1.00  0.00     0.246 C 
HETATM    4  O   LIG     1     -22.854 -15.661 -11.473  1.00  0.00    -0.271 OA
HETATM    5  N   LIG     1     -21.426 -15.161  -9.672  1.00  0.00    -0.323 N 
HETATM    6  H   LIG     1     -21.125 -14.389  -9.081  1.00  0.00     0.169 HD
BRANCH   5   7
HETATM    7  C   LIG     1     -20.828 -16.409  -9.377  1.00  0.00     0.068 A 
HETATM    8  C   LIG     1     -21.428 -17.290  -8.477  1.00  0.00     0.097 A 
HETATM    9  C   LIG     1     -20.827 -18.517  -8.197  1.00  0.00     0.075 A 
HETATM   10  C   LIG     1     -19.628 -18.865  -8.817  1.00  0.00     0.105 A 
HETATM   11  C   LIG     1     -19.028 -17.985  -9.719  1.00  0.00     0.038 A 
HETATM   12  C   LIG     1     -19.629 -16.757  -9.999  1.00  0.00     0.035 A 
BRANCH   8  13
HETATM   13  O   LIG     1     -22.600 -16.968  -7.859  1.00  0.00    -0.354 OA
HETATM   14  C   LIG     1     -22.680 -17.213  -6.457  1.00  0.00     0.210 C 
ENDBRANCH   8  13
BRANCH  10  15
HETATM   15  N   LIG     1     -19.015 -20.113  -8.532  1.00  0.00    -0.116 N 
HETATM   16  O   LIG     1     -18.748 -20.404  -7.341  1.00  0.00    -0.532 OA
HETATM   17  O   LIG     1     -18.757 -20.893  -9.481  1.00  0.00    -0.532 OA
ENDBRANCH  10  15
ENDBRANCH   5   7
ENDBRANCH   2   3
ENDBRANCH   1   2
BRANCH   1  18
HETATM   18  C   LIG     1     -22.526 -12.755 -12.915  1.00  0.00     0.283 C 
HETATM   19  O   LIG     1     -23.680 -12.481 -13.215  1.00  0.00    -0.263 OA
BRANCH  18  20
HETATM   20  C   LIG     1     -21.457 -13.172 -13.891  1.00  0.00     0.286 C 
BRANCH  20  21
HETATM   21  O   LIG     1     -22.075 -13.795 -15.011  1.00  0.00    -0.337 OA
BRANCH  21  22
HETATM   22  C   LIG     1     -22.257 -15.150 -14.941  1.00  0.00     0.120 A 
HETATM   23  C   LIG     1     -21.219 -15.943 -14.459  1.00  0.00     0.104 A 
HETATM   24  N   LIG     1     -20.061 -15.375 -14.070  1.00  0.00    -0.250 NA
HETATM   25  C   LIG     1     -21.422 -17.337 -14.395  1.00  0.00     0.017 A 
HETATM   26  C   LIG     1     -19.077 -16.181 -13.607  1.00  0.00     0.031 A 
HETATM   27  C   LIG     1     -19.184 -17.553 -13.507  1.00  0.00     0.027 A 
HETATM   28  C   LIG     1     -17.812 -15.511 -13.186  1.00  0.00     0.070 C 
HETATM   29  C   LIG     1     -20.377 -18.135 -13.909  1.00  0.00     0.017 A 
HETATM   30  C   LIG     1     -22.643 -17.895 -14.810  1.00  0.00     0.048 A 
HETATM   31 CL   LIG     1     -22.971 -19.598 -14.761  1.00  0.00    -0.083 Cl
HETATM   32  C   LIG     1     -23.665 -17.080 -15.288  1.00  0.00     0.051 A 
HETATM   33  C   LIG     1     -23.471 -15.706 -15.354  1.00  0.00     0.071 A 
HETATM   34 CL   LIG     1     -24.748 -14.710 -15.950  1.00  0.00    -0.081 Cl
ENDBRANCH  21  22
ENDBRANCH  20  21
ENDBRANCH  18  20
ENDBRANCH   1  18
TORSDOF 9
ENDMDL
