MODEL 1
REMARK VINA RESULT:      -9.3      0.000      0.000
REMARK  1 active torsions:
REMARK  status: ('A' for Active; 'I' for Inactive)
REMARK    1  A    between atoms: C_7  and  C_21 
ROOT
HETATM    1  O   LIG     1     -22.798 -13.062 -17.061  1.00  0.00    -0.291 OA
HETATM    2  C   LIG     1     -21.702 -14.602  -9.657  1.00  0.00     0.000 C 
HETATM    3  C   LIG     1     -22.237 -15.949  -9.128  1.00  0.00     0.006 C 
HETATM    4  C   LIG     1     -21.203 -14.684 -11.104  1.00  0.00     0.001 C 
HETATM    5  C   LIG     1     -22.385 -15.134 -12.019  1.00  0.00     0.004 C 
HETATM    6  C   LIG     1     -21.986 -15.210 -13.543  1.00  0.00     0.016 C 
HETATM    7  C   LIG     1     -22.583 -15.530  -7.682  1.00  0.00     0.058 C 
HETATM    8  C   LIG     1     -23.444 -16.343  -9.990  1.00  0.00     0.000 C 
HETATM    9  C   LIG     1     -23.075 -16.419 -11.483  1.00  0.00     0.000 C 
HETATM   10  C   LIG     1     -20.737 -14.152  -8.566  1.00  0.00     0.000 C 
HETATM   11  C   LIG     1     -20.651 -13.336 -11.584  1.00  0.00     0.004 C 
HETATM   12  C   LIG     1     -21.417 -14.611  -7.263  1.00  0.00     0.007 C 
HETATM   13  C   LIG     1     -21.278 -13.912 -13.952  1.00  0.00    -0.042 C 
HETATM   14  C   LIG     1     -21.188 -17.092  -9.141  1.00  0.00     0.000 C 
HETATM   15  C   LIG     1     -20.187 -13.415 -13.033  1.00  0.00     0.022 C 
HETATM   16  C   LIG     1     -23.285 -15.394 -14.380  1.00  0.00     0.012 C 
HETATM   17  C   LIG     1     -21.032 -16.391 -13.832  1.00  0.00     0.004 C 
HETATM   18  C   LIG     1     -23.101 -15.112 -15.863  1.00  0.00     0.070 C 
HETATM   19  C   LIG     1     -21.559 -13.225 -15.073  1.00  0.00     0.029 C 
HETATM   20  C   LIG     1     -22.531 -13.733 -16.067  1.00  0.00     0.172 C 
ENDROOT
BRANCH   7  21
HETATM   21  C   LIG     1     -22.777 -16.674  -6.735  1.00  0.00     0.151 C 
HETATM   22  O   LIG     1     -21.832 -17.174  -6.127  1.00  0.00    -0.296 OA
HETATM   23  C   LIG     1     -24.183 -17.179  -6.565  1.00  0.00     0.072 C 
ENDBRANCH   7  21
TORSDOF 1
ENDMDL
