MODEL 1
REMARK VINA RESULT:      -7.8      0.000      0.000
REMARK  9 active torsions:
REMARK  status: ('A' for Active; 'I' for Inactive)
REMARK    1  A    between atoms: O_4  and  C_22 
REMARK    2  A    between atoms: O_5  and  C_21 
REMARK    3  A    between atoms: N_6  and  C_12 
REMARK    4  A    between atoms: N_7  and  C_15 
REMARK    5  A    between atoms: N_7  and  C_16 
REMARK    6  A    between atoms: N_8  and  N_9 
REMARK    7  A    between atoms: N_8  and  C_16 
REMARK    8  A    between atoms: C_12  and  C_15 
REMARK    9  A    between atoms: C_17  and  C_18 
ROOT
HETATM    1  N   LIG     1     -19.771 -20.910 -13.736  1.00  0.00    -0.254 N 
HETATM    2  H   LIG     1     -19.251 -20.603 -14.551  1.00  0.00     0.191 HD
ENDROOT
BRANCH   1   3
HETATM    3  N   LIG     1     -20.880 -21.664 -13.929  1.00  0.00    -0.184 NA
HETATM    4  C   LIG     1     -21.748 -21.127 -14.722  1.00  0.00     0.151 C 
BRANCH   4   5
HETATM    5  C   LIG     1     -23.018 -21.797 -15.054  1.00  0.00     0.003 A 
HETATM    6  C   LIG     1     -23.009 -23.183 -15.112  1.00  0.00     0.053 A 
HETATM    7  C   LIG     1     -24.186 -23.864 -15.423  1.00  0.00     0.099 A 
HETATM    8  C   LIG     1     -25.359 -23.151 -15.671  1.00  0.00     0.102 A 
HETATM    9  C   LIG     1     -25.355 -21.757 -15.610  1.00  0.00     0.059 A 
HETATM   10  C   LIG     1     -24.178 -21.077 -15.300  1.00  0.00     0.025 A 
HETATM   11 BR   LIG     1     -24.226 -19.181 -15.229  1.00  0.00    -0.050 Br
BRANCH   7  12
HETATM   12  O   LIG     1     -24.177 -25.225 -15.479  1.00  0.00    -0.358 OA
HETATM   13  H   LIG     1     -23.269 -25.521 -15.665  1.00  0.00     0.217 HD
ENDBRANCH   7  12
BRANCH   8  14
HETATM   14  O   LIG     1     -26.515 -23.804 -15.975  1.00  0.00    -0.353 OA
HETATM   15  C   LIG     1     -26.835 -23.948 -17.357  1.00  0.00     0.210 C 
ENDBRANCH   8  14
ENDBRANCH   4   5
ENDBRANCH   1   3
BRANCH   1  16
HETATM   16  C   LIG     1     -19.354 -20.566 -12.464  1.00  0.00     0.188 C 
HETATM   17  S   LIG     1     -19.166 -21.769 -11.308  1.00  0.00    -0.040 SA
BRANCH  16  18
HETATM   18  N   LIG     1     -19.123 -19.209 -12.257  1.00  0.00    -0.364 N 
HETATM   19  H   LIG     1     -18.970 -18.917 -11.296  1.00  0.00     0.162 HD
BRANCH  18  20
HETATM   20  C   LIG     1     -19.070 -18.181 -13.260  1.00  0.00     0.150 C 
BRANCH  20  21
HETATM   21  C   LIG     1     -20.371 -17.407 -13.360  1.00  0.00     0.254 C 
BRANCH  21  22
HETATM   22  N   LIG     1     -20.091 -15.933 -13.329  1.00  0.00    -0.066 N 
HETATM   23  C   LIG     1     -20.816 -15.194 -14.428  1.00  0.00     0.261 C 
HETATM   24  C   LIG     1     -20.517 -13.711 -14.286  1.00  0.00     0.195 C 
HETATM   25  O   LIG     1     -19.110 -13.476 -14.353  1.00  0.00    -0.388 OA
HETATM   26  C   LIG     1     -18.425 -14.129 -13.283  1.00  0.00     0.195 C 
HETATM   27  C   LIG     1     -18.610 -15.634 -13.371  1.00  0.00     0.261 C 
HETATM   28  H   LIG     1     -20.446 -15.579 -12.430  1.00  0.00     0.280 HD
ENDBRANCH  21  22
ENDBRANCH  20  21
ENDBRANCH  18  20
ENDBRANCH  16  18
ENDBRANCH   1  16
TORSDOF 9
ENDMDL
MODEL 2
REMARK VINA RESULT:      -7.6      2.310      2.590
REMARK  9 active torsions:
REMARK  status: ('A' for Active; 'I' for Inactive)
REMARK    1  A    between atoms: O_4  and  C_22 
REMARK    2  A    between atoms: O_5  and  C_21 
REMARK    3  A    between atoms: N_6  and  C_12 
REMARK    4  A    between atoms: N_7  and  C_15 
REMARK    5  A    between atoms: N_7  and  C_16 
REMARK    6  A    between atoms: N_8  and  N_9 
REMARK    7  A    between atoms: N_8  and  C_16 
REMARK    8  A    between atoms: C_12  and  C_15 
REMARK    9  A    between atoms: C_17  and  C_18 
ROOT
HETATM    1  N   LIG     1     -19.717 -21.053 -14.206  1.00  0.00    -0.254 N 
HETATM    2  H   LIG     1     -19.124 -20.778 -14.982  1.00  0.00     0.191 HD
ENDROOT
BRANCH   1   3
HETATM    3  N   LIG     1     -20.795 -21.830 -14.469  1.00  0.00    -0.184 NA
HETATM    4  C   LIG     1     -21.856 -21.164 -14.789  1.00  0.00     0.151 C 
BRANCH   4   5
HETATM    5  C   LIG     1     -23.129 -21.835 -15.110  1.00  0.00     0.003 A 
HETATM    6  C   LIG     1     -23.121 -23.221 -15.161  1.00  0.00     0.053 A 
HETATM    7  C   LIG     1     -24.300 -23.902 -15.461  1.00  0.00     0.099 A 
HETATM    8  C   LIG     1     -25.474 -23.190 -15.706  1.00  0.00     0.102 A 
HETATM    9  C   LIG     1     -25.469 -21.795 -15.652  1.00  0.00     0.059 A 
HETATM   10  C   LIG     1     -24.289 -21.115 -15.352  1.00  0.00     0.025 A 
HETATM   11 BR   LIG     1     -24.335 -19.218 -15.290  1.00  0.00    -0.050 Br
BRANCH   7  12
HETATM   12  O   LIG     1     -24.294 -25.264 -15.511  1.00  0.00    -0.358 OA
HETATM   13  H   LIG     1     -23.994 -25.539 -16.395  1.00  0.00     0.217 HD
ENDBRANCH   7  12
BRANCH   8  14
HETATM   14  O   LIG     1     -26.633 -23.843 -16.000  1.00  0.00    -0.353 OA
HETATM   15  C   LIG     1     -26.880 -24.141 -17.372  1.00  0.00     0.210 C 
ENDBRANCH   8  14
ENDBRANCH   4   5
ENDBRANCH   1   3
BRANCH   1  16
HETATM   16  C   LIG     1     -19.427 -20.646 -12.918  1.00  0.00     0.188 C 
HETATM   17  S   LIG     1     -19.421 -21.780 -11.680  1.00  0.00    -0.040 SA
BRANCH  16  18
HETATM   18  N   LIG     1     -19.160 -19.289 -12.765  1.00  0.00    -0.364 N 
HETATM   19  H   LIG     1     -19.080 -18.744 -13.619  1.00  0.00     0.162 HD
BRANCH  18  20
HETATM   20  C   LIG     1     -18.993 -18.577 -11.528  1.00  0.00     0.150 C 
BRANCH  20  21
HETATM   21  C   LIG     1     -18.938 -17.074 -11.731  1.00  0.00     0.254 C 
BRANCH  21  22
HETATM   22  N   LIG     1     -19.518 -16.377 -10.535  1.00  0.00    -0.066 N 
HETATM   23  C   LIG     1     -20.145 -17.347  -9.561  1.00  0.00     0.261 C 
HETATM   24  C   LIG     1     -20.654 -16.561  -8.364  1.00  0.00     0.195 C 
HETATM   25  O   LIG     1     -21.597 -15.571  -8.780  1.00  0.00    -0.388 OA
HETATM   26  C   LIG     1     -20.995 -14.621  -9.660  1.00  0.00     0.195 C 
HETATM   27  C   LIG     1     -20.504 -15.301 -10.926  1.00  0.00     0.261 C 
HETATM   28  H   LIG     1     -18.738 -15.912 -10.051  1.00  0.00     0.280 HD
ENDBRANCH  21  22
ENDBRANCH  20  21
ENDBRANCH  18  20
ENDBRANCH  16  18
ENDBRANCH   1  16
TORSDOF 9
ENDMDL
MODEL 3
REMARK VINA RESULT:      -7.4      5.991      7.276
REMARK  9 active torsions:
REMARK  status: ('A' for Active; 'I' for Inactive)
REMARK    1  A    between atoms: O_4  and  C_22 
REMARK    2  A    between atoms: O_5  and  C_21 
REMARK    3  A    between atoms: N_6  and  C_12 
REMARK    4  A    between atoms: N_7  and  C_15 
REMARK    5  A    between atoms: N_7  and  C_16 
REMARK    6  A    between atoms: N_8  and  N_9 
REMARK    7  A    between atoms: N_8  and  C_16 
REMARK    8  A    between atoms: C_12  and  C_15 
REMARK    9  A    between atoms: C_17  and  C_18 
ROOT
HETATM    1  N   LIG     1     -20.428 -15.944 -14.988  1.00  0.00    -0.254 N 
HETATM    2  H   LIG     1     -20.174 -16.518 -15.786  1.00  0.00     0.191 HD
ENDROOT
BRANCH   1   3
HETATM    3  N   LIG     1     -20.410 -16.512 -13.759  1.00  0.00    -0.184 NA
HETATM    4  C   LIG     1     -19.369 -17.245 -13.534  1.00  0.00     0.151 C 
BRANCH   4   5
HETATM    5  C   LIG     1     -19.172 -17.945 -12.252  1.00  0.00     0.003 A 
HETATM    6  C   LIG     1     -18.879 -17.167 -11.141  1.00  0.00     0.053 A 
HETATM    7  C   LIG     1     -18.684 -17.783  -9.906  1.00  0.00     0.099 A 
HETATM    8  C   LIG     1     -18.783 -19.170  -9.794  1.00  0.00     0.102 A 
HETATM    9  C   LIG     1     -19.078 -19.941 -10.919  1.00  0.00     0.059 A 
HETATM   10  C   LIG     1     -19.273 -19.325 -12.154  1.00  0.00     0.025 A 
HETATM   11 BR   LIG     1     -19.672 -20.420 -13.653  1.00  0.00    -0.050 Br
BRANCH   7  12
HETATM   12  O   LIG     1     -18.397 -17.019  -8.814  1.00  0.00    -0.358 OA
HETATM   13  H   LIG     1     -18.161 -16.124  -9.117  1.00  0.00     0.217 HD
ENDBRANCH   7  12
BRANCH   8  14
HETATM   14  O   LIG     1     -18.595 -19.784  -8.592  1.00  0.00    -0.353 OA
HETATM   15  C   LIG     1     -19.762 -20.110  -7.841  1.00  0.00     0.210 C 
ENDBRANCH   8  14
ENDBRANCH   4   5
ENDBRANCH   1   3
BRANCH   1  16
HETATM   16  C   LIG     1     -20.779 -14.618 -15.157  1.00  0.00     0.188 C 
HETATM   17  S   LIG     1     -22.253 -14.243 -15.870  1.00  0.00    -0.040 SA
BRANCH  16  18
HETATM   18  N   LIG     1     -19.845 -13.690 -14.707  1.00  0.00    -0.364 N 
HETATM   19  H   LIG     1     -19.169 -13.360 -15.389  1.00  0.00     0.162 HD
BRANCH  18  20
HETATM   20  C   LIG     1     -19.741 -13.145 -13.381  1.00  0.00     0.150 C 
BRANCH  20  21
HETATM   21  C   LIG     1     -21.088 -13.059 -12.687  1.00  0.00     0.254 C 
BRANCH  21  22
HETATM   22  N   LIG     1     -21.177 -14.108 -11.617  1.00  0.00    -0.066 N 
HETATM   23  C   LIG     1     -22.458 -14.904 -11.708  1.00  0.00     0.261 C 
HETATM   24  C   LIG     1     -22.436 -15.970 -10.626  1.00  0.00     0.195 C 
HETATM   25  O   LIG     1     -22.294 -15.372  -9.336  1.00  0.00    -0.388 OA
HETATM   26  C   LIG     1     -21.059 -14.663  -9.228  1.00  0.00     0.195 C 
HETATM   27  C   LIG     1     -21.006 -13.526 -10.233  1.00  0.00     0.261 C 
HETATM   28  H   LIG     1     -20.396 -14.760 -11.770  1.00  0.00     0.280 HD
ENDBRANCH  21  22
ENDBRANCH  20  21
ENDBRANCH  18  20
ENDBRANCH  16  18
ENDBRANCH   1  16
TORSDOF 9
ENDMDL
MODEL 4
REMARK VINA RESULT:      -7.3      2.075      8.661
REMARK  9 active torsions:
REMARK  status: ('A' for Active; 'I' for Inactive)
REMARK    1  A    between atoms: O_4  and  C_22 
REMARK    2  A    between atoms: O_5  and  C_21 
REMARK    3  A    between atoms: N_6  and  C_12 
REMARK    4  A    between atoms: N_7  and  C_15 
REMARK    5  A    between atoms: N_7  and  C_16 
REMARK    6  A    between atoms: N_8  and  N_9 
REMARK    7  A    between atoms: N_8  and  C_16 
REMARK    8  A    between atoms: C_12  and  C_15 
REMARK    9  A    between atoms: C_17  and  C_18 
ROOT
HETATM    1  N   LIG     1     -19.087 -20.151 -13.223  1.00  0.00    -0.254 N 
HETATM    2  H   LIG     1     -18.182 -20.271 -13.667  1.00  0.00     0.191 HD
ENDROOT
BRANCH   1   3
HETATM    3  N   LIG     1     -19.622 -18.907 -13.184  1.00  0.00    -0.184 NA
HETATM    4  C   LIG     1     -18.809 -17.999 -12.751  1.00  0.00     0.151 C 
BRANCH   4   5
HETATM    5  C   LIG     1     -19.209 -16.586 -12.638  1.00  0.00     0.003 A 
HETATM    6  C   LIG     1     -18.965 -15.766 -13.731  1.00  0.00     0.053 A 
HETATM    7  C   LIG     1     -19.326 -14.421 -13.672  1.00  0.00     0.099 A 
HETATM    8  C   LIG     1     -19.927 -13.909 -12.522  1.00  0.00     0.102 A 
HETATM    9  C   LIG     1     -20.167 -14.743 -11.430  1.00  0.00     0.059 A 
HETATM   10  C   LIG     1     -19.806 -16.089 -11.489  1.00  0.00     0.025 A 
HETATM   11 BR   LIG     1     -20.156 -17.182  -9.976  1.00  0.00    -0.050 Br
BRANCH   7  12
HETATM   12  O   LIG     1     -19.087 -13.616 -14.745  1.00  0.00    -0.358 OA
HETATM   13  H   LIG     1     -18.794 -12.746 -14.420  1.00  0.00     0.217 HD
ENDBRANCH   7  12
BRANCH   8  14
HETATM   14  O   LIG     1     -20.285 -12.596 -12.453  1.00  0.00    -0.353 OA
HETATM   15  C   LIG     1     -20.966 -12.171 -11.274  1.00  0.00     0.210 C 
ENDBRANCH   8  14
ENDBRANCH   4   5
ENDBRANCH   1   3
BRANCH   1  16
HETATM   16  C   LIG     1     -19.751 -21.232 -12.675  1.00  0.00     0.188 C 
HETATM   17  S   LIG     1     -19.073 -22.035 -11.365  1.00  0.00    -0.040 SA
BRANCH  16  18
HETATM   18  N   LIG     1     -20.958 -21.563 -13.284  1.00  0.00    -0.364 N 
HETATM   19  H   LIG     1     -21.713 -21.848 -12.667  1.00  0.00     0.162 HD
BRANCH  18  20
HETATM   20  C   LIG     1     -21.250 -21.536 -14.691  1.00  0.00     0.150 C 
BRANCH  20  21
HETATM   21  C   LIG     1     -22.641 -21.006 -14.981  1.00  0.00     0.254 C 
BRANCH  21  22
HETATM   22  N   LIG     1     -23.412 -22.012 -15.785  1.00  0.00    -0.066 N 
HETATM   23  C   LIG     1     -24.825 -21.555 -16.062  1.00  0.00     0.261 C 
HETATM   24  C   LIG     1     -25.508 -22.606 -16.921  1.00  0.00     0.195 C 
HETATM   25  O   LIG     1     -25.499 -23.874 -16.262  1.00  0.00    -0.388 OA
HETATM   26  C   LIG     1     -24.165 -24.335 -16.045  1.00  0.00     0.195 C 
HETATM   27  C   LIG     1     -23.410 -23.379 -15.139  1.00  0.00     0.261 C 
HETATM   28  H   LIG     1     -22.932 -22.104 -16.690  1.00  0.00     0.280 HD
ENDBRANCH  21  22
ENDBRANCH  20  21
ENDBRANCH  18  20
ENDBRANCH  16  18
ENDBRANCH   1  16
TORSDOF 9
ENDMDL
MODEL 5
REMARK VINA RESULT:      -7.2      6.519      7.851
REMARK  9 active torsions:
REMARK  status: ('A' for Active; 'I' for Inactive)
REMARK    1  A    between atoms: O_4  and  C_22 
REMARK    2  A    between atoms: O_5  and  C_21 
REMARK    3  A    between atoms: N_6  and  C_12 
REMARK    4  A    between atoms: N_7  and  C_15 
REMARK    5  A    between atoms: N_7  and  C_16 
REMARK    6  A    between atoms: N_8  and  N_9 
REMARK    7  A    between atoms: N_8  and  C_16 
REMARK    8  A    between atoms: C_12  and  C_15 
REMARK    9  A    between atoms: C_17  and  C_18 
ROOT
HETATM    1  N   LIG     1     -18.283 -16.232 -11.891  1.00  0.00    -0.254 N 
HETATM    2  H   LIG     1     -17.367 -15.823 -11.743  1.00  0.00     0.191 HD
ENDROOT
BRANCH   1   3
HETATM    3  N   LIG     1     -19.069 -15.709 -12.863  1.00  0.00    -0.184 NA
HETATM    4  C   LIG     1     -20.065 -15.015 -12.417  1.00  0.00     0.151 C 
BRANCH   4   5
HETATM    5  C   LIG     1     -21.030 -14.367 -13.323  1.00  0.00     0.003 A 
HETATM    6  C   LIG     1     -20.932 -14.666 -14.675  1.00  0.00     0.053 A 
HETATM    7  C   LIG     1     -21.822 -14.077 -15.572  1.00  0.00     0.099 A 
HETATM    8  C   LIG     1     -22.801 -13.198 -15.109  1.00  0.00     0.102 A 
HETATM    9  C   LIG     1     -22.888 -12.905 -13.747  1.00  0.00     0.059 A 
HETATM   10  C   LIG     1     -21.998 -13.494 -12.850  1.00  0.00     0.025 A 
HETATM   11 BR   LIG     1     -22.160 -13.063 -11.008  1.00  0.00    -0.050 Br
BRANCH   7  12
HETATM   12  O   LIG     1     -21.727 -14.371 -16.899  1.00  0.00    -0.358 OA
HETATM   13  H   LIG     1     -22.336 -13.790 -17.388  1.00  0.00     0.217 HD
ENDBRANCH   7  12
BRANCH   8  14
HETATM   14  O   LIG     1     -23.677 -12.617 -15.976  1.00  0.00    -0.353 OA
HETATM   15  C   LIG     1     -25.044 -13.012 -15.878  1.00  0.00     0.210 C 
ENDBRANCH   8  14
ENDBRANCH   4   5
ENDBRANCH   1   3
BRANCH   1  16
HETATM   16  C   LIG     1     -18.714 -17.294 -11.119  1.00  0.00     0.188 C 
HETATM   17  S   LIG     1     -19.076 -18.755 -11.861  1.00  0.00    -0.040 SA
BRANCH  16  18
HETATM   18  N   LIG     1     -18.811 -17.040  -9.753  1.00  0.00    -0.364 N 
HETATM   19  H   LIG     1     -17.943 -17.055  -9.227  1.00  0.00     0.162 HD
BRANCH  18  20
HETATM   20  C   LIG     1     -20.010 -16.752  -9.013  1.00  0.00     0.150 C 
BRANCH  20  21
HETATM   21  C   LIG     1     -20.643 -18.003  -8.435  1.00  0.00     0.254 C 
BRANCH  21  22
HETATM   22  N   LIG     1     -22.109 -17.774  -8.209  1.00  0.00    -0.066 N 
HETATM   23  C   LIG     1     -22.704 -16.844  -9.241  1.00  0.00     0.261 C 
HETATM   24  C   LIG     1     -24.192 -16.715  -8.967  1.00  0.00     0.195 C 
HETATM   25  O   LIG     1     -24.417 -16.224  -7.644  1.00  0.00    -0.388 OA
HETATM   26  C   LIG     1     -23.904 -17.125  -6.663  1.00  0.00     0.195 C 
HETATM   27  C   LIG     1     -22.400 -17.277  -6.812  1.00  0.00     0.261 C 
HETATM   28  H   LIG     1     -22.574 -18.686  -8.309  1.00  0.00     0.280 HD
ENDBRANCH  21  22
ENDBRANCH  20  21
ENDBRANCH  18  20
ENDBRANCH  16  18
ENDBRANCH   1  16
TORSDOF 9
ENDMDL
MODEL 6
REMARK VINA RESULT:      -7.2      6.366      7.564
REMARK  9 active torsions:
REMARK  status: ('A' for Active; 'I' for Inactive)
REMARK    1  A    between atoms: O_4  and  C_22 
REMARK    2  A    between atoms: O_5  and  C_21 
REMARK    3  A    between atoms: N_6  and  C_12 
REMARK    4  A    between atoms: N_7  and  C_15 
REMARK    5  A    between atoms: N_7  and  C_16 
REMARK    6  A    between atoms: N_8  and  N_9 
REMARK    7  A    between atoms: N_8  and  C_16 
REMARK    8  A    between atoms: C_12  and  C_15 
REMARK    9  A    between atoms: C_17  and  C_18 
ROOT
HETATM    1  N   LIG     1     -22.349 -14.068  -9.203  1.00  0.00    -0.254 N 
HETATM    2  H   LIG     1     -23.211 -13.865  -9.698  1.00  0.00     0.191 HD
ENDROOT
BRANCH   1   3
HETATM    3  N   LIG     1     -21.959 -15.361  -9.099  1.00  0.00    -0.184 NA
HETATM    4  C   LIG     1     -20.872 -15.636  -9.743  1.00  0.00     0.151 C 
BRANCH   4   5
HETATM    5  C   LIG     1     -20.291 -16.990  -9.749  1.00  0.00     0.003 A 
HETATM    6  C   LIG     1     -20.470 -17.763  -8.610  1.00  0.00     0.053 A 
HETATM    7  C   LIG     1     -19.939 -19.051  -8.567  1.00  0.00     0.099 A 
HETATM    8  C   LIG     1     -19.234 -19.553  -9.661  1.00  0.00     0.102 A 
HETATM    9  C   LIG     1     -19.061 -18.766 -10.800  1.00  0.00     0.059 A 
HETATM   10  C   LIG     1     -19.592 -17.477 -10.843  1.00  0.00     0.025 A 
HETATM   11 BR   LIG     1     -19.329 -16.448 -12.416  1.00  0.00    -0.050 Br
BRANCH   7  12
HETATM   12  O   LIG     1     -20.115 -19.811  -7.449  1.00  0.00    -0.358 OA
HETATM   13  H   LIG     1     -20.952 -20.300  -7.537  1.00  0.00     0.217 HD
ENDBRANCH   7  12
BRANCH   8  14
HETATM   14  O   LIG     1     -18.711 -20.811  -9.631  1.00  0.00    -0.353 OA
HETATM   15  C   LIG     1     -19.014 -21.665 -10.731  1.00  0.00     0.210 C 
ENDBRANCH   8  14
ENDBRANCH   4   5
ENDBRANCH   1   3
BRANCH   1  16
HETATM   16  C   LIG     1     -21.596 -13.048  -8.653  1.00  0.00     0.188 C 
HETATM   17  S   LIG     1     -21.134 -13.146  -7.042  1.00  0.00    -0.040 SA
BRANCH  16  18
HETATM   18  N   LIG     1     -21.283 -12.002  -9.517  1.00  0.00    -0.364 N 
HETATM   19  H   LIG     1     -20.713 -11.254  -9.134  1.00  0.00     0.162 HD
BRANCH  18  20
HETATM   20  C   LIG     1     -21.677 -11.874 -10.893  1.00  0.00     0.150 C 
BRANCH  20  21
HETATM   21  C   LIG     1     -20.660 -12.480 -11.842  1.00  0.00     0.254 C 
BRANCH  21  22
HETATM   22  N   LIG     1     -21.331 -12.867 -13.128  1.00  0.00    -0.066 N 
HETATM   23  C   LIG     1     -22.439 -13.869 -12.911  1.00  0.00     0.261 C 
HETATM   24  C   LIG     1     -23.092 -14.159 -14.252  1.00  0.00     0.195 C 
HETATM   25  O   LIG     1     -22.126 -14.656 -15.181  1.00  0.00    -0.388 OA
HETATM   26  C   LIG     1     -21.103 -13.691 -15.430  1.00  0.00     0.195 C 
HETATM   27  C   LIG     1     -20.344 -13.375 -14.154  1.00  0.00     0.261 C 
HETATM   28  H   LIG     1     -21.755 -12.013 -13.514  1.00  0.00     0.280 HD
ENDBRANCH  21  22
ENDBRANCH  20  21
ENDBRANCH  18  20
ENDBRANCH  16  18
ENDBRANCH   1  16
TORSDOF 9
ENDMDL
MODEL 7
REMARK VINA RESULT:      -7.2      4.789      7.852
REMARK  9 active torsions:
REMARK  status: ('A' for Active; 'I' for Inactive)
REMARK    1  A    between atoms: O_4  and  C_22 
REMARK    2  A    between atoms: O_5  and  C_21 
REMARK    3  A    between atoms: N_6  and  C_12 
REMARK    4  A    between atoms: N_7  and  C_15 
REMARK    5  A    between atoms: N_7  and  C_16 
REMARK    6  A    between atoms: N_8  and  N_9 
REMARK    7  A    between atoms: N_8  and  C_16 
REMARK    8  A    between atoms: C_12  and  C_15 
REMARK    9  A    between atoms: C_17  and  C_18 
ROOT
HETATM    1  N   LIG     1     -21.053 -15.281  -9.174  1.00  0.00    -0.254 N 
HETATM    2  H   LIG     1     -21.026 -14.484  -8.546  1.00  0.00     0.191 HD
ENDROOT
BRANCH   1   3
HETATM    3  N   LIG     1     -21.657 -15.129 -10.377  1.00  0.00    -0.184 NA
HETATM    4  C   LIG     1     -21.235 -14.111 -11.052  1.00  0.00     0.151 C 
BRANCH   4   5
HETATM    5  C   LIG     1     -21.773 -13.782 -12.384  1.00  0.00     0.003 A 
HETATM    6  C   LIG     1     -21.235 -14.457 -13.471  1.00  0.00     0.053 A 
HETATM    7  C   LIG     1     -21.711 -14.181 -14.752  1.00  0.00     0.099 A 
HETATM    8  C   LIG     1     -22.719 -13.234 -14.933  1.00  0.00     0.102 A 
HETATM    9  C   LIG     1     -23.252 -12.562 -13.832  1.00  0.00     0.059 A 
HETATM   10  C   LIG     1     -22.776 -12.838 -12.551  1.00  0.00     0.025 A 
HETATM   11 BR   LIG     1     -23.533 -11.897 -11.087  1.00  0.00    -0.050 Br
BRANCH   7  12
HETATM   12  O   LIG     1     -21.184 -14.844 -15.819  1.00  0.00    -0.358 OA
HETATM   13  H   LIG     1     -21.705 -15.653 -15.968  1.00  0.00     0.217 HD
ENDBRANCH   7  12
BRANCH   8  14
HETATM   14  O   LIG     1     -23.193 -12.956 -16.180  1.00  0.00    -0.353 OA
HETATM   15  C   LIG     1     -24.572 -12.609 -16.287  1.00  0.00     0.210 C 
ENDBRANCH   8  14
ENDBRANCH   4   5
ENDBRANCH   1   3
BRANCH   1  16
HETATM   16  C   LIG     1     -20.485 -16.486  -8.807  1.00  0.00     0.188 C 
HETATM   17  S   LIG     1     -21.465 -17.701  -8.189  1.00  0.00    -0.040 SA
BRANCH  16  18
HETATM   18  N   LIG     1     -19.108 -16.579  -8.991  1.00  0.00    -0.364 N 
HETATM   19  H   LIG     1     -18.542 -15.870  -8.536  1.00  0.00     0.162 HD
BRANCH  18  20
HETATM   20  C   LIG     1     -18.405 -17.577  -9.751  1.00  0.00     0.150 C 
BRANCH  20  21
HETATM   21  C   LIG     1     -18.746 -17.521 -11.228  1.00  0.00     0.254 C 
BRANCH  21  22
HETATM   22  N   LIG     1     -18.755 -18.909 -11.801  1.00  0.00    -0.066 N 
HETATM   23  C   LIG     1     -19.580 -18.996 -13.063  1.00  0.00     0.261 C 
HETATM   24  C   LIG     1     -19.488 -20.416 -13.597  1.00  0.00     0.195 C 
HETATM   25  O   LIG     1     -19.947 -21.350 -12.618  1.00  0.00    -0.388 OA
HETATM   26  C   LIG     1     -19.137 -21.308 -11.443  1.00  0.00     0.195 C 
HETATM   27  C   LIG     1     -19.210 -19.938 -10.792  1.00  0.00     0.261 C 
HETATM   28  H   LIG     1     -17.783 -19.137 -12.049  1.00  0.00     0.280 HD
ENDBRANCH  21  22
ENDBRANCH  20  21
ENDBRANCH  18  20
ENDBRANCH  16  18
ENDBRANCH   1  16
TORSDOF 9
ENDMDL
MODEL 8
REMARK VINA RESULT:      -7.2      2.247      7.800
REMARK  9 active torsions:
REMARK  status: ('A' for Active; 'I' for Inactive)
REMARK    1  A    between atoms: O_4  and  C_22 
REMARK    2  A    between atoms: O_5  and  C_21 
REMARK    3  A    between atoms: N_6  and  C_12 
REMARK    4  A    between atoms: N_7  and  C_15 
REMARK    5  A    between atoms: N_7  and  C_16 
REMARK    6  A    between atoms: N_8  and  N_9 
REMARK    7  A    between atoms: N_8  and  C_16 
REMARK    8  A    between atoms: C_12  and  C_15 
REMARK    9  A    between atoms: C_17  and  C_18 
ROOT
HETATM    1  N   LIG     1     -18.989 -18.805 -12.560  1.00  0.00    -0.254 N 
HETATM    2  H   LIG     1     -18.273 -18.570 -11.881  1.00  0.00     0.191 HD
ENDROOT
BRANCH   1   3
HETATM    3  N   LIG     1     -19.563 -17.797 -13.261  1.00  0.00    -0.184 NA
HETATM    4  C   LIG     1     -20.378 -17.073 -12.567  1.00  0.00     0.151 C 
BRANCH   4   5
HETATM    5  C   LIG     1     -21.098 -15.930 -13.156  1.00  0.00     0.003 A 
HETATM    6  C   LIG     1     -20.951 -15.720 -14.520  1.00  0.00     0.053 A 
HETATM    7  C   LIG     1     -21.612 -14.651 -15.123  1.00  0.00     0.099 A 
HETATM    8  C   LIG     1     -22.413 -13.804 -14.358  1.00  0.00     0.102 A 
HETATM    9  C   LIG     1     -22.552 -14.025 -12.988  1.00  0.00     0.059 A 
HETATM   10  C   LIG     1     -21.891 -15.094 -12.384  1.00  0.00     0.025 A 
HETATM   11 BR   LIG     1     -22.115 -15.352 -10.517  1.00  0.00    -0.050 Br
BRANCH   7  12
HETATM   12  O   LIG     1     -21.468 -14.445 -16.463  1.00  0.00    -0.358 OA
HETATM   13  H   LIG     1     -22.242 -14.820 -16.918  1.00  0.00     0.217 HD
ENDBRANCH   7  12
BRANCH   8  14
HETATM   14  O   LIG     1     -23.064 -12.756 -14.937  1.00  0.00    -0.353 OA
HETATM   15  C   LIG     1     -24.417 -12.972 -15.332  1.00  0.00     0.210 C 
ENDBRANCH   8  14
ENDBRANCH   4   5
ENDBRANCH   1   3
BRANCH   1  16
HETATM   16  C   LIG     1     -19.365 -20.120 -12.762  1.00  0.00     0.188 C 
HETATM   17  S   LIG     1     -19.228 -21.216 -11.498  1.00  0.00    -0.040 SA
BRANCH  16  18
HETATM   18  N   LIG     1     -19.835 -20.418 -14.038  1.00  0.00    -0.364 N 
HETATM   19  H   LIG     1     -19.367 -19.956 -14.812  1.00  0.00     0.162 HD
BRANCH  18  20
HETATM   20  C   LIG     1     -20.907 -21.315 -14.374  1.00  0.00     0.150 C 
BRANCH  20  21
HETATM   21  C   LIG     1     -22.165 -20.578 -14.791  1.00  0.00     0.254 C 
BRANCH  21  22
HETATM   22  N   LIG     1     -23.090 -21.516 -15.511  1.00  0.00    -0.066 N 
HETATM   23  C   LIG     1     -24.508 -20.997 -15.549  1.00  0.00     0.261 C 
HETATM   24  C   LIG     1     -25.355 -21.980 -16.339  1.00  0.00     0.195 C 
HETATM   25  O   LIG     1     -25.300 -23.279 -15.746  1.00  0.00    -0.388 OA
HETATM   26  C   LIG     1     -23.969 -23.796 -15.756  1.00  0.00     0.195 C 
HETATM   27  C   LIG     1     -23.046 -22.912 -14.934  1.00  0.00     0.261 C 
HETATM   28  H   LIG     1     -22.756 -21.579 -16.482  1.00  0.00     0.280 HD
ENDBRANCH  21  22
ENDBRANCH  20  21
ENDBRANCH  18  20
ENDBRANCH  16  18
ENDBRANCH   1  16
TORSDOF 9
ENDMDL
MODEL 9
REMARK VINA RESULT:      -7.1      5.432      7.082
REMARK  9 active torsions:
REMARK  status: ('A' for Active; 'I' for Inactive)
REMARK    1  A    between atoms: O_4  and  C_22 
REMARK    2  A    between atoms: O_5  and  C_21 
REMARK    3  A    between atoms: N_6  and  C_12 
REMARK    4  A    between atoms: N_7  and  C_15 
REMARK    5  A    between atoms: N_7  and  C_16 
REMARK    6  A    between atoms: N_8  and  N_9 
REMARK    7  A    between atoms: N_8  and  C_16 
REMARK    8  A    between atoms: C_12  and  C_15 
REMARK    9  A    between atoms: C_17  and  C_18 
ROOT
HETATM    1  N   LIG     1     -19.735 -14.299 -12.695  1.00  0.00    -0.254 N 
HETATM    2  H   LIG     1     -18.829 -13.980 -12.367  1.00  0.00     0.191 HD
ENDROOT
BRANCH   1   3
HETATM    3  N   LIG     1     -20.018 -15.621 -12.605  1.00  0.00    -0.184 NA
HETATM    4  C   LIG     1     -18.989 -16.363 -12.350  1.00  0.00     0.151 C 
BRANCH   4   5
HETATM    5  C   LIG     1     -19.099 -17.826 -12.216  1.00  0.00     0.003 A 
HETATM    6  C   LIG     1     -19.323 -18.556 -13.375  1.00  0.00     0.053 A 
HETATM    7  C   LIG     1     -19.434 -19.943 -13.299  1.00  0.00     0.099 A 
HETATM    8  C   LIG     1     -19.319 -20.587 -12.067  1.00  0.00     0.102 A 
HETATM    9  C   LIG     1     -19.093 -19.842 -10.909  1.00  0.00     0.059 A 
HETATM   10  C   LIG     1     -18.982 -18.454 -10.985  1.00  0.00     0.025 A 
HETATM   11 BR   LIG     1     -18.675 -17.487  -9.380  1.00  0.00    -0.050 Br
BRANCH   7  12
HETATM   12  O   LIG     1     -19.654 -20.660 -14.437  1.00  0.00    -0.358 OA
HETATM   13  H   LIG     1     -19.584 -20.059 -15.200  1.00  0.00     0.217 HD
ENDBRANCH   7  12
BRANCH   8  14
HETATM   14  O   LIG     1     -19.425 -21.943 -11.981  1.00  0.00    -0.353 OA
HETATM   15  C   LIG     1     -18.693 -22.585 -10.939  1.00  0.00     0.210 C 
ENDBRANCH   8  14
ENDBRANCH   4   5
ENDBRANCH   1   3
BRANCH   1  16
HETATM   16  C   LIG     1     -20.651 -13.407 -13.217  1.00  0.00     0.188 C 
HETATM   17  S   LIG     1     -21.338 -13.718 -14.717  1.00  0.00    -0.040 SA
BRANCH  16  18
HETATM   18  N   LIG     1     -20.924 -12.297 -12.422  1.00  0.00    -0.364 N 
HETATM   19  H   LIG     1     -20.997 -11.404 -12.901  1.00  0.00     0.162 HD
BRANCH  18  20
HETATM   20  C   LIG     1     -21.120 -12.283 -10.998  1.00  0.00     0.150 C 
BRANCH  20  21
HETATM   21  C   LIG     1     -22.472 -12.841 -10.598  1.00  0.00     0.254 C 
BRANCH  21  22
HETATM   22  N   LIG     1     -22.336 -13.655  -9.343  1.00  0.00    -0.066 N 
HETATM   23  C   LIG     1     -21.261 -13.116  -8.430  1.00  0.00     0.261 C 
HETATM   24  C   LIG     1     -21.232 -13.965  -7.171  1.00  0.00     0.195 C 
HETATM   25  O   LIG     1     -20.989 -15.335  -7.496  1.00  0.00    -0.388 OA
HETATM   26  C   LIG     1     -22.031 -15.865  -8.316  1.00  0.00     0.195 C 
HETATM   27  C   LIG     1     -22.103 -15.119  -9.637  1.00  0.00     0.261 C 
HETATM   28  H   LIG     1     -23.232 -13.586  -8.842  1.00  0.00     0.280 HD
ENDBRANCH  21  22
ENDBRANCH  20  21
ENDBRANCH  18  20
ENDBRANCH  16  18
ENDBRANCH   1  16
TORSDOF 9
ENDMDL
