MODEL 1
REMARK VINA RESULT:      -7.3      0.000      0.000
REMARK  10 active torsions:
REMARK  status: ('A' for Active; 'I' for Inactive)
REMARK    1  A    between atoms: O_1  and  C_15 
REMARK    2  A    between atoms: O_1  and  C_20 
REMARK    3  A    between atoms: N_3  and  C_11 
REMARK    4  A    between atoms: N_5  and  C_14 
REMARK       I    between atoms: N_5  and  C_21 
REMARK    5  A    between atoms: C_6  and  C_7 
REMARK    6  A    between atoms: C_6  and  C_8 
REMARK    7  A    between atoms: C_7  and  C_9 
REMARK    8  A    between atoms: C_9  and  C_12 
REMARK    9  A    between atoms: C_11  and  C_15 
REMARK   10  A    between atoms: C_12  and  C_14 
ROOT
HETATM    1  N   LIG     1     -21.935 -16.375 -10.097  1.00  0.00    -0.331 N 
HETATM    2  N   LIG     1     -20.574 -17.342  -8.631  1.00  0.00    -0.233 NA
HETATM    3  C   LIG     1     -20.675 -16.838  -9.840  1.00  0.00     0.107 A 
HETATM    4  C   LIG     1     -22.699 -16.595  -8.980  1.00  0.00     0.065 A 
HETATM    5  C   LIG     1     -21.826 -17.200  -8.079  1.00  0.00     0.085 A 
HETATM    6  C   LIG     1     -24.037 -16.326  -8.688  1.00  0.00     0.032 A 
HETATM    7  C   LIG     1     -22.300 -17.564  -6.807  1.00  0.00     0.034 A 
HETATM    8  C   LIG     1     -24.491 -16.695  -7.418  1.00  0.00     0.002 A 
HETATM    9  C   LIG     1     -23.639 -17.303  -6.493  1.00  0.00     0.002 A 
ENDROOT
BRANCH   3  10
HETATM   10  C   LIG     1     -19.566 -16.757 -10.860  1.00  0.00     0.079 C 
BRANCH  10  11
HETATM   11  C   LIG     1     -19.138 -18.127 -11.397  1.00  0.00     0.008 C 
BRANCH  11  12
HETATM   12  C   LIG     1     -19.149 -18.208 -12.927  1.00  0.00     0.002 C 
BRANCH  12  13
HETATM   13  C   LIG     1     -19.323 -16.820 -13.553  1.00  0.00     0.020 C 
BRANCH  13  14
HETATM   14  C   LIG     1     -20.608 -16.704 -14.367  1.00  0.00     0.122 C 
BRANCH  14  15
HETATM   15  N   LIG     1     -20.710 -15.445 -15.053  1.00  0.00    -0.361 N 
HETATM   16  C   LIG     1     -21.920 -14.832 -15.353  1.00  0.00     0.213 C 
HETATM   17  O   LIG     1     -23.033 -15.275 -15.079  1.00  0.00    -0.274 OA
HETATM   18  C   LIG     1     -21.741 -13.510 -16.051  1.00  0.00     0.117 C 
HETATM   19  H   LIG     1     -19.846 -14.981 -15.317  1.00  0.00     0.162 HD
ENDBRANCH  14  15
ENDBRANCH  13  14
ENDBRANCH  12  13
ENDBRANCH  11  12
ENDBRANCH  10  11
ENDBRANCH   3  10
BRANCH   1  20
HETATM   20  C   LIG     1     -22.387 -15.762 -11.326  1.00  0.00     0.156 C 
BRANCH  20  21
HETATM   21  C   LIG     1     -22.225 -14.247 -11.317  1.00  0.00     0.187 C 
BRANCH  21  22
HETATM   22  O   LIG     1     -21.339 -13.855 -12.357  1.00  0.00    -0.390 OA
BRANCH  22  23
HETATM   23  C   LIG     1     -20.286 -13.039 -11.864  1.00  0.00     0.163 C 
HETATM   24  C   LIG     1     -19.103 -13.139 -12.803  1.00  0.00     0.033 C 
ENDBRANCH  22  23
ENDBRANCH  21  22
ENDBRANCH  20  21
ENDBRANCH   1  20
TORSDOF 10
ENDMDL
MODEL 2
REMARK VINA RESULT:      -7.2      2.051      4.086
REMARK  10 active torsions:
REMARK  status: ('A' for Active; 'I' for Inactive)
REMARK    1  A    between atoms: O_1  and  C_15 
REMARK    2  A    between atoms: O_1  and  C_20 
REMARK    3  A    between atoms: N_3  and  C_11 
REMARK    4  A    between atoms: N_5  and  C_14 
REMARK       I    between atoms: N_5  and  C_21 
REMARK    5  A    between atoms: C_6  and  C_7 
REMARK    6  A    between atoms: C_6  and  C_8 
REMARK    7  A    between atoms: C_7  and  C_9 
REMARK    8  A    between atoms: C_9  and  C_12 
REMARK    9  A    between atoms: C_11  and  C_15 
REMARK   10  A    between atoms: C_12  and  C_14 
ROOT
HETATM    1  N   LIG     1     -21.253 -16.651  -9.425  1.00  0.00    -0.331 N 
HETATM    2  N   LIG     1     -23.250 -15.997 -10.149  1.00  0.00    -0.233 NA
HETATM    3  C   LIG     1     -21.978 -16.122 -10.456  1.00  0.00     0.107 A 
HETATM    4  C   LIG     1     -22.112 -16.882  -8.383  1.00  0.00     0.065 A 
HETATM    5  C   LIG     1     -23.353 -16.466  -8.859  1.00  0.00     0.085 A 
HETATM    6  C   LIG     1     -21.919 -17.405  -7.103  1.00  0.00     0.032 A 
HETATM    7  C   LIG     1     -24.477 -16.569  -8.023  1.00  0.00     0.034 A 
HETATM    8  C   LIG     1     -23.048 -17.501  -6.285  1.00  0.00     0.002 A 
HETATM    9  C   LIG     1     -24.305 -17.091  -6.734  1.00  0.00     0.002 A 
ENDROOT
BRANCH   3  10
HETATM   10  C   LIG     1     -21.345 -15.741 -11.771  1.00  0.00     0.079 C 
BRANCH  10  11
HETATM   11  C   LIG     1     -22.322 -15.797 -12.951  1.00  0.00     0.008 C 
BRANCH  11  12
HETATM   12  C   LIG     1     -21.624 -15.909 -14.310  1.00  0.00     0.002 C 
BRANCH  12  13
HETATM   13  C   LIG     1     -21.916 -14.685 -15.185  1.00  0.00     0.020 C 
BRANCH  13  14
HETATM   14  C   LIG     1     -20.977 -13.519 -14.891  1.00  0.00     0.122 C 
BRANCH  14  15
HETATM   15  N   LIG     1     -19.637 -13.952 -14.606  1.00  0.00    -0.361 N 
HETATM   16  C   LIG     1     -18.932 -13.566 -13.473  1.00  0.00     0.213 C 
HETATM   17  O   LIG     1     -19.350 -12.821 -12.591  1.00  0.00    -0.274 OA
HETATM   18  C   LIG     1     -17.561 -14.184 -13.407  1.00  0.00     0.117 C 
HETATM   19  H   LIG     1     -19.195 -14.585 -15.267  1.00  0.00     0.162 HD
ENDBRANCH  14  15
ENDBRANCH  13  14
ENDBRANCH  12  13
ENDBRANCH  11  12
ENDBRANCH  10  11
ENDBRANCH   3  10
BRANCH   1  20
HETATM   20  C   LIG     1     -19.832 -16.920  -9.429  1.00  0.00     0.156 C 
BRANCH  20  21
HETATM   21  C   LIG     1     -19.506 -18.329  -9.905  1.00  0.00     0.187 C 
BRANCH  21  22
HETATM   22  O   LIG     1     -18.660 -18.970  -8.959  1.00  0.00    -0.390 OA
BRANCH  22  23
HETATM   23  C   LIG     1     -19.001 -20.339  -8.798  1.00  0.00     0.163 C 
HETATM   24  C   LIG     1     -18.992 -21.012 -10.154  1.00  0.00     0.033 C 
ENDBRANCH  22  23
ENDBRANCH  21  22
ENDBRANCH  20  21
ENDBRANCH   1  20
TORSDOF 10
ENDMDL
MODEL 3
REMARK VINA RESULT:      -7.2      2.413      5.022
REMARK  10 active torsions:
REMARK  status: ('A' for Active; 'I' for Inactive)
REMARK    1  A    between atoms: O_1  and  C_15 
REMARK    2  A    between atoms: O_1  and  C_20 
REMARK    3  A    between atoms: N_3  and  C_11 
REMARK    4  A    between atoms: N_5  and  C_14 
REMARK       I    between atoms: N_5  and  C_21 
REMARK    5  A    between atoms: C_6  and  C_7 
REMARK    6  A    between atoms: C_6  and  C_8 
REMARK    7  A    between atoms: C_7  and  C_9 
REMARK    8  A    between atoms: C_9  and  C_12 
REMARK    9  A    between atoms: C_11  and  C_15 
REMARK   10  A    between atoms: C_12  and  C_14 
ROOT
HETATM    1  N   LIG     1     -18.847 -18.107 -10.962  1.00  0.00    -0.331 N 
HETATM    2  N   LIG     1     -19.144 -18.321 -13.154  1.00  0.00    -0.233 NA
HETATM    3  C   LIG     1     -18.927 -17.476 -12.172  1.00  0.00     0.107 A 
HETATM    4  C   LIG     1     -19.026 -19.449 -11.177  1.00  0.00     0.065 A 
HETATM    5  C   LIG     1     -19.209 -19.557 -12.553  1.00  0.00     0.085 A 
HETATM    6  C   LIG     1     -19.041 -20.546 -10.314  1.00  0.00     0.032 A 
HETATM    7  C   LIG     1     -19.422 -20.826 -13.118  1.00  0.00     0.034 A 
HETATM    8  C   LIG     1     -19.254 -21.800 -10.893  1.00  0.00     0.002 A 
HETATM    9  C   LIG     1     -19.441 -21.940 -12.270  1.00  0.00     0.002 A 
ENDROOT
BRANCH   3  10
HETATM   10  C   LIG     1     -18.778 -15.980 -12.308  1.00  0.00     0.079 C 
BRANCH  10  11
HETATM   11  C   LIG     1     -20.117 -15.252 -12.469  1.00  0.00     0.008 C 
BRANCH  11  12
HETATM   12  C   LIG     1     -19.964 -13.802 -12.942  1.00  0.00     0.002 C 
BRANCH  12  13
HETATM   13  C   LIG     1     -20.873 -13.513 -14.142  1.00  0.00     0.020 C 
BRANCH  13  14
HETATM   14  C   LIG     1     -21.149 -14.757 -14.980  1.00  0.00     0.122 C 
BRANCH  14  15
HETATM   15  N   LIG     1     -21.752 -14.443 -16.246  1.00  0.00    -0.361 N 
HETATM   16  C   LIG     1     -23.124 -14.333 -16.435  1.00  0.00     0.213 C 
HETATM   17  O   LIG     1     -23.979 -14.486 -15.567  1.00  0.00    -0.274 OA
HETATM   18  C   LIG     1     -23.485 -13.970 -17.850  1.00  0.00     0.117 C 
HETATM   19  H   LIG     1     -21.134 -14.284 -17.036  1.00  0.00     0.162 HD
ENDBRANCH  14  15
ENDBRANCH  13  14
ENDBRANCH  12  13
ENDBRANCH  11  12
ENDBRANCH  10  11
ENDBRANCH   3  10
BRANCH   1  20
HETATM   20  C   LIG     1     -18.617 -17.477  -9.682  1.00  0.00     0.156 C 
BRANCH  20  21
HETATM   21  C   LIG     1     -19.891 -16.898  -9.078  1.00  0.00     0.187 C 
BRANCH  21  22
HETATM   22  O   LIG     1     -20.686 -17.948  -8.543  1.00  0.00    -0.390 OA
BRANCH  22  23
HETATM   23  C   LIG     1     -22.031 -17.533  -8.347  1.00  0.00     0.163 C 
HETATM   24  C   LIG     1     -22.253 -17.257  -6.876  1.00  0.00     0.033 C 
ENDBRANCH  22  23
ENDBRANCH  21  22
ENDBRANCH  20  21
ENDBRANCH   1  20
TORSDOF 10
ENDMDL
MODEL 4
REMARK VINA RESULT:      -7.1      3.012      5.458
REMARK  10 active torsions:
REMARK  status: ('A' for Active; 'I' for Inactive)
REMARK    1  A    between atoms: O_1  and  C_15 
REMARK    2  A    between atoms: O_1  and  C_20 
REMARK    3  A    between atoms: N_3  and  C_11 
REMARK    4  A    between atoms: N_5  and  C_14 
REMARK       I    between atoms: N_5  and  C_21 
REMARK    5  A    between atoms: C_6  and  C_7 
REMARK    6  A    between atoms: C_6  and  C_8 
REMARK    7  A    between atoms: C_7  and  C_9 
REMARK    8  A    between atoms: C_9  and  C_12 
REMARK    9  A    between atoms: C_11  and  C_15 
REMARK   10  A    between atoms: C_12  and  C_14 
ROOT
HETATM    1  N   LIG     1     -21.191 -16.737  -9.301  1.00  0.00    -0.331 N 
HETATM    2  N   LIG     1     -23.109 -16.029 -10.175  1.00  0.00    -0.233 NA
HETATM    3  C   LIG     1     -21.824 -16.203 -10.389  1.00  0.00     0.107 A 
HETATM    4  C   LIG     1     -22.130 -16.920  -8.319  1.00  0.00     0.065 A 
HETATM    5  C   LIG     1     -23.319 -16.471  -8.889  1.00  0.00     0.085 A 
HETATM    6  C   LIG     1     -22.046 -17.425  -7.021  1.00  0.00     0.032 A 
HETATM    7  C   LIG     1     -24.502 -16.521  -8.133  1.00  0.00     0.034 A 
HETATM    8  C   LIG     1     -23.233 -17.468  -6.283  1.00  0.00     0.002 A 
HETATM    9  C   LIG     1     -24.440 -17.024  -6.827  1.00  0.00     0.002 A 
ENDROOT
BRANCH   3  10
HETATM   10  C   LIG     1     -21.086 -15.868 -11.662  1.00  0.00     0.079 C 
BRANCH  10  11
HETATM   11  C   LIG     1     -20.404 -14.495 -11.622  1.00  0.00     0.008 C 
BRANCH  11  12
HETATM   12  C   LIG     1     -21.354 -13.338 -11.950  1.00  0.00     0.002 C 
BRANCH  12  13
HETATM   13  C   LIG     1     -21.358 -12.291 -10.831  1.00  0.00     0.020 C 
BRANCH  13  14
HETATM   14  C   LIG     1     -21.869 -12.852  -9.508  1.00  0.00     0.122 C 
BRANCH  14  15
HETATM   15  N   LIG     1     -21.327 -12.158  -8.372  1.00  0.00    -0.361 N 
HETATM   16  C   LIG     1     -21.013 -12.782  -7.171  1.00  0.00     0.213 C 
HETATM   17  O   LIG     1     -21.154 -13.978  -6.929  1.00  0.00    -0.274 OA
HETATM   18  C   LIG     1     -20.437 -11.829  -6.159  1.00  0.00     0.117 C 
HETATM   19  H   LIG     1     -21.157 -11.161  -8.466  1.00  0.00     0.162 HD
ENDBRANCH  14  15
ENDBRANCH  13  14
ENDBRANCH  12  13
ENDBRANCH  11  12
ENDBRANCH  10  11
ENDBRANCH   3  10
BRANCH   1  20
HETATM   20  C   LIG     1     -19.785 -17.053  -9.199  1.00  0.00     0.156 C 
BRANCH  20  21
HETATM   21  C   LIG     1     -19.467 -18.465  -9.675  1.00  0.00     0.187 C 
BRANCH  21  22
HETATM   22  O   LIG     1     -19.662 -19.384  -8.607  1.00  0.00    -0.390 OA
BRANCH  22  23
HETATM   23  C   LIG     1     -18.895 -20.566  -8.792  1.00  0.00     0.163 C 
HETATM   24  C   LIG     1     -19.003 -21.004 -10.237  1.00  0.00     0.033 C 
ENDBRANCH  22  23
ENDBRANCH  21  22
ENDBRANCH  20  21
ENDBRANCH   1  20
TORSDOF 10
ENDMDL
MODEL 5
REMARK VINA RESULT:      -7.1      2.597      5.156
REMARK  10 active torsions:
REMARK  status: ('A' for Active; 'I' for Inactive)
REMARK    1  A    between atoms: O_1  and  C_15 
REMARK    2  A    between atoms: O_1  and  C_20 
REMARK    3  A    between atoms: N_3  and  C_11 
REMARK    4  A    between atoms: N_5  and  C_14 
REMARK       I    between atoms: N_5  and  C_21 
REMARK    5  A    between atoms: C_6  and  C_7 
REMARK    6  A    between atoms: C_6  and  C_8 
REMARK    7  A    between atoms: C_7  and  C_9 
REMARK    8  A    between atoms: C_9  and  C_12 
REMARK    9  A    between atoms: C_11  and  C_15 
REMARK   10  A    between atoms: C_12  and  C_14 
ROOT
HETATM    1  N   LIG     1     -19.148 -18.035 -11.767  1.00  0.00    -0.331 N 
HETATM    2  N   LIG     1     -19.452 -19.168 -13.655  1.00  0.00    -0.233 NA
HETATM    3  C   LIG     1     -19.341 -17.973 -13.119  1.00  0.00     0.107 A 
HETATM    4  C   LIG     1     -19.134 -19.358 -11.406  1.00  0.00     0.065 A 
HETATM    5  C   LIG     1     -19.326 -20.045 -12.602  1.00  0.00     0.085 A 
HETATM    6  C   LIG     1     -18.975 -19.994 -10.174  1.00  0.00     0.032 A 
HETATM    7  C   LIG     1     -19.365 -21.449 -12.586  1.00  0.00     0.034 A 
HETATM    8  C   LIG     1     -19.015 -21.391 -10.177  1.00  0.00     0.002 A 
HETATM    9  C   LIG     1     -19.207 -22.108 -11.360  1.00  0.00     0.002 A 
ENDROOT
BRANCH   3  10
HETATM   10  C   LIG     1     -19.412 -16.661 -13.861  1.00  0.00     0.079 C 
BRANCH  10  11
HETATM   11  C   LIG     1     -18.034 -16.103 -14.234  1.00  0.00     0.008 C 
BRANCH  11  12
HETATM   12  C   LIG     1     -17.798 -14.679 -13.721  1.00  0.00     0.002 C 
BRANCH  12  13
HETATM   13  C   LIG     1     -19.028 -13.795 -13.956  1.00  0.00     0.020 C 
BRANCH  13  14
HETATM   14  C   LIG     1     -19.425 -13.004 -12.714  1.00  0.00     0.122 C 
BRANCH  14  15
HETATM   15  N   LIG     1     -20.820 -12.659 -12.707  1.00  0.00    -0.361 N 
HETATM   16  C   LIG     1     -21.560 -12.484 -11.544  1.00  0.00     0.213 C 
HETATM   17  O   LIG     1     -21.130 -12.600 -10.400  1.00  0.00    -0.274 OA
HETATM   18  C   LIG     1     -22.989 -12.099 -11.821  1.00  0.00     0.117 C 
HETATM   19  H   LIG     1     -21.277 -12.525 -13.604  1.00  0.00     0.162 HD
ENDBRANCH  14  15
ENDBRANCH  13  14
ENDBRANCH  12  13
ENDBRANCH  11  12
ENDBRANCH  10  11
ENDBRANCH   3  10
BRANCH   1  20
HETATM   20  C   LIG     1     -18.987 -16.911 -10.874  1.00  0.00     0.156 C 
BRANCH  20  21
HETATM   21  C   LIG     1     -20.271 -16.109 -10.706  1.00  0.00     0.187 C 
BRANCH  21  22
HETATM   22  O   LIG     1     -21.170 -16.817  -9.861  1.00  0.00    -0.390 OA
BRANCH  22  23
HETATM   23  C   LIG     1     -20.616 -17.023  -8.569  1.00  0.00     0.163 C 
HETATM   24  C   LIG     1     -21.359 -18.152  -7.889  1.00  0.00     0.033 C 
ENDBRANCH  22  23
ENDBRANCH  21  22
ENDBRANCH  20  21
ENDBRANCH   1  20
TORSDOF 10
ENDMDL
MODEL 6
REMARK VINA RESULT:      -7.1      2.471      4.234
REMARK  10 active torsions:
REMARK  status: ('A' for Active; 'I' for Inactive)
REMARK    1  A    between atoms: O_1  and  C_15 
REMARK    2  A    between atoms: O_1  and  C_20 
REMARK    3  A    between atoms: N_3  and  C_11 
REMARK    4  A    between atoms: N_5  and  C_14 
REMARK       I    between atoms: N_5  and  C_21 
REMARK    5  A    between atoms: C_6  and  C_7 
REMARK    6  A    between atoms: C_6  and  C_8 
REMARK    7  A    between atoms: C_7  and  C_9 
REMARK    8  A    between atoms: C_9  and  C_12 
REMARK    9  A    between atoms: C_11  and  C_15 
REMARK   10  A    between atoms: C_12  and  C_14 
ROOT
HETATM    1  N   LIG     1     -21.115 -16.365  -9.252  1.00  0.00    -0.331 N 
HETATM    2  N   LIG     1     -23.009 -15.520 -10.052  1.00  0.00    -0.233 NA
HETATM    3  C   LIG     1     -21.722 -15.680 -10.267  1.00  0.00     0.107 A 
HETATM    4  C   LIG     1     -22.073 -16.667  -8.318  1.00  0.00     0.065 A 
HETATM    5  C   LIG     1     -23.246 -16.129  -8.841  1.00  0.00     0.085 A 
HETATM    6  C   LIG     1     -22.017 -17.343  -7.099  1.00  0.00     0.032 A 
HETATM    7  C   LIG     1     -24.443 -16.265  -8.118  1.00  0.00     0.034 A 
HETATM    8  C   LIG     1     -23.217 -17.470  -6.393  1.00  0.00     0.002 A 
HETATM    9  C   LIG     1     -24.410 -16.941  -6.891  1.00  0.00     0.002 A 
ENDROOT
BRANCH   3  10
HETATM   10  C   LIG     1     -20.959 -15.186 -11.471  1.00  0.00     0.079 C 
BRANCH  10  11
HETATM   11  C   LIG     1     -20.989 -13.661 -11.621  1.00  0.00     0.008 C 
BRANCH  11  12
HETATM   12  C   LIG     1     -21.326 -13.199 -13.043  1.00  0.00     0.002 C 
BRANCH  12  13
HETATM   13  C   LIG     1     -22.767 -13.564 -13.417  1.00  0.00     0.020 C 
BRANCH  13  14
HETATM   14  C   LIG     1     -23.317 -12.694 -14.542  1.00  0.00     0.122 C 
BRANCH  14  15
HETATM   15  N   LIG     1     -23.377 -13.393 -15.796  1.00  0.00    -0.361 N 
HETATM   16  C   LIG     1     -23.923 -12.848 -16.952  1.00  0.00     0.213 C 
HETATM   17  O   LIG     1     -24.414 -11.727 -17.049  1.00  0.00    -0.274 OA
HETATM   18  C   LIG     1     -23.834 -13.782 -18.128  1.00  0.00     0.117 C 
HETATM   19  H   LIG     1     -22.986 -14.330 -15.833  1.00  0.00     0.162 HD
ENDBRANCH  14  15
ENDBRANCH  13  14
ENDBRANCH  12  13
ENDBRANCH  11  12
ENDBRANCH  10  11
ENDBRANCH   3  10
BRANCH   1  20
HETATM   20  C   LIG     1     -19.714 -16.711  -9.171  1.00  0.00     0.156 C 
BRANCH  20  21
HETATM   21  C   LIG     1     -19.389 -18.004  -9.907  1.00  0.00     0.187 C 
BRANCH  21  22
HETATM   22  O   LIG     1     -18.504 -18.792  -9.121  1.00  0.00    -0.390 OA
BRANCH  22  23
HETATM   23  C   LIG     1     -18.962 -20.132  -9.004  1.00  0.00     0.163 C 
HETATM   24  C   LIG     1     -19.501 -20.349  -7.607  1.00  0.00     0.033 C 
ENDBRANCH  22  23
ENDBRANCH  21  22
ENDBRANCH  20  21
ENDBRANCH   1  20
TORSDOF 10
ENDMDL
MODEL 7
REMARK VINA RESULT:      -7.0      2.248      4.125
REMARK  10 active torsions:
REMARK  status: ('A' for Active; 'I' for Inactive)
REMARK    1  A    between atoms: O_1  and  C_15 
REMARK    2  A    between atoms: O_1  and  C_20 
REMARK    3  A    between atoms: N_3  and  C_11 
REMARK    4  A    between atoms: N_5  and  C_14 
REMARK       I    between atoms: N_5  and  C_21 
REMARK    5  A    between atoms: C_6  and  C_7 
REMARK    6  A    between atoms: C_6  and  C_8 
REMARK    7  A    between atoms: C_7  and  C_9 
REMARK    8  A    between atoms: C_9  and  C_12 
REMARK    9  A    between atoms: C_11  and  C_15 
REMARK   10  A    between atoms: C_12  and  C_14 
ROOT
HETATM    1  N   LIG     1     -20.043 -17.644  -9.367  1.00  0.00    -0.331 N 
HETATM    2  N   LIG     1     -21.111 -16.179 -10.653  1.00  0.00    -0.233 NA
HETATM    3  C   LIG     1     -20.018 -16.893 -10.509  1.00  0.00     0.107 A 
HETATM    4  C   LIG     1     -21.233 -17.398  -8.731  1.00  0.00     0.065 A 
HETATM    5  C   LIG     1     -21.882 -16.481  -9.553  1.00  0.00     0.085 A 
HETATM    6  C   LIG     1     -21.781 -17.884  -7.543  1.00  0.00     0.032 A 
HETATM    7  C   LIG     1     -23.153 -16.010  -9.185  1.00  0.00     0.034 A 
HETATM    8  C   LIG     1     -23.047 -17.405  -7.191  1.00  0.00     0.002 A 
HETATM    9  C   LIG     1     -23.722 -16.485  -7.996  1.00  0.00     0.002 A 
ENDROOT
BRANCH   3  10
HETATM   10  C   LIG     1     -18.845 -16.916 -11.459  1.00  0.00     0.079 C 
BRANCH  10  11
HETATM   11  C   LIG     1     -19.103 -17.755 -12.716  1.00  0.00     0.008 C 
BRANCH  11  12
HETATM   12  C   LIG     1     -19.246 -16.911 -13.987  1.00  0.00     0.002 C 
BRANCH  12  13
HETATM   13  C   LIG     1     -20.711 -16.540 -14.242  1.00  0.00     0.020 C 
BRANCH  13  14
HETATM   14  C   LIG     1     -20.896 -15.053 -14.528  1.00  0.00     0.122 C 
BRANCH  14  15
HETATM   15  N   LIG     1     -21.068 -14.281 -13.329  1.00  0.00    -0.361 N 
HETATM   16  C   LIG     1     -20.095 -13.434 -12.816  1.00  0.00     0.213 C 
HETATM   17  O   LIG     1     -18.986 -13.239 -13.309  1.00  0.00    -0.274 OA
HETATM   18  C   LIG     1     -20.544 -12.726 -11.567  1.00  0.00     0.117 C 
HETATM   19  H   LIG     1     -21.958 -14.356 -12.844  1.00  0.00     0.162 HD
ENDBRANCH  14  15
ENDBRANCH  13  14
ENDBRANCH  12  13
ENDBRANCH  11  12
ENDBRANCH  10  11
ENDBRANCH   3  10
BRANCH   1  20
HETATM   20  C   LIG     1     -19.005 -18.537  -8.907  1.00  0.00     0.156 C 
BRANCH  20  21
HETATM   21  C   LIG     1     -19.319 -19.999  -9.202  1.00  0.00     0.187 C 
BRANCH  21  22
HETATM   22  O   LIG     1     -18.848 -20.337 -10.499  1.00  0.00    -0.390 OA
BRANCH  22  23
HETATM   23  C   LIG     1     -19.042 -21.716 -10.781  1.00  0.00     0.163 C 
HETATM   24  C   LIG     1     -19.434 -21.873 -12.234  1.00  0.00     0.033 C 
ENDBRANCH  22  23
ENDBRANCH  21  22
ENDBRANCH  20  21
ENDBRANCH   1  20
TORSDOF 10
ENDMDL
MODEL 8
REMARK VINA RESULT:      -7.0      2.887      4.704
REMARK  10 active torsions:
REMARK  status: ('A' for Active; 'I' for Inactive)
REMARK    1  A    between atoms: O_1  and  C_15 
REMARK    2  A    between atoms: O_1  and  C_20 
REMARK    3  A    between atoms: N_3  and  C_11 
REMARK    4  A    between atoms: N_5  and  C_14 
REMARK       I    between atoms: N_5  and  C_21 
REMARK    5  A    between atoms: C_6  and  C_7 
REMARK    6  A    between atoms: C_6  and  C_8 
REMARK    7  A    between atoms: C_7  and  C_9 
REMARK    8  A    between atoms: C_9  and  C_12 
REMARK    9  A    between atoms: C_11  and  C_15 
REMARK   10  A    between atoms: C_12  and  C_14 
ROOT
HETATM    1  N   LIG     1     -21.024 -16.230  -9.153  1.00  0.00    -0.331 N 
HETATM    2  N   LIG     1     -22.942 -15.780 -10.182  1.00  0.00    -0.233 NA
HETATM    3  C   LIG     1     -21.632 -15.765 -10.285  1.00  0.00     0.107 A 
HETATM    4  C   LIG     1     -22.007 -16.567  -8.258  1.00  0.00     0.065 A 
HETATM    5  C   LIG     1     -23.195 -16.277  -8.923  1.00  0.00     0.085 A 
HETATM    6  C   LIG     1     -21.960 -17.084  -6.963  1.00  0.00     0.032 A 
HETATM    7  C   LIG     1     -24.418 -16.511  -8.274  1.00  0.00     0.034 A 
HETATM    8  C   LIG     1     -23.187 -17.312  -6.331  1.00  0.00     0.002 A 
HETATM    9  C   LIG     1     -24.395 -17.031  -6.973  1.00  0.00     0.002 A 
ENDROOT
BRANCH   3  10
HETATM   10  C   LIG     1     -20.846 -15.300 -11.486  1.00  0.00     0.079 C 
BRANCH  10  11
HETATM   11  C   LIG     1     -20.640 -16.398 -12.536  1.00  0.00     0.008 C 
BRANCH  11  12
HETATM   12  C   LIG     1     -19.308 -16.278 -13.284  1.00  0.00     0.002 C 
BRANCH  12  13
HETATM   13  C   LIG     1     -18.672 -17.655 -13.506  1.00  0.00     0.020 C 
BRANCH  13  14
HETATM   14  C   LIG     1     -19.664 -18.796 -13.304  1.00  0.00     0.122 C 
BRANCH  14  15
HETATM   15  N   LIG     1     -19.194 -19.771 -12.359  1.00  0.00    -0.361 N 
HETATM   16  C   LIG     1     -19.530 -21.118 -12.415  1.00  0.00     0.213 C 
HETATM   17  O   LIG     1     -20.255 -21.638 -13.259  1.00  0.00    -0.274 OA
HETATM   18  C   LIG     1     -18.881 -21.921 -11.320  1.00  0.00     0.117 C 
HETATM   19  H   LIG     1     -18.574 -19.451 -11.620  1.00  0.00     0.162 HD
ENDBRANCH  14  15
ENDBRANCH  13  14
ENDBRANCH  12  13
ENDBRANCH  11  12
ENDBRANCH  10  11
ENDBRANCH   3  10
BRANCH   1  20
HETATM   20  C   LIG     1     -19.601 -16.346  -8.933  1.00  0.00     0.156 C 
BRANCH  20  21
HETATM   21  C   LIG     1     -18.980 -17.495  -9.718  1.00  0.00     0.187 C 
BRANCH  21  22
HETATM   22  O   LIG     1     -18.540 -18.505  -8.820  1.00  0.00    -0.390 OA
BRANCH  22  23
HETATM   23  C   LIG     1     -19.570 -19.446  -8.549  1.00  0.00     0.163 C 
HETATM   24  C   LIG     1     -19.049 -20.480  -7.574  1.00  0.00     0.033 C 
ENDBRANCH  22  23
ENDBRANCH  21  22
ENDBRANCH  20  21
ENDBRANCH   1  20
TORSDOF 10
ENDMDL
MODEL 9
REMARK VINA RESULT:      -6.7      2.541      4.260
REMARK  10 active torsions:
REMARK  status: ('A' for Active; 'I' for Inactive)
REMARK    1  A    between atoms: O_1  and  C_15 
REMARK    2  A    between atoms: O_1  and  C_20 
REMARK    3  A    between atoms: N_3  and  C_11 
REMARK    4  A    between atoms: N_5  and  C_14 
REMARK       I    between atoms: N_5  and  C_21 
REMARK    5  A    between atoms: C_6  and  C_7 
REMARK    6  A    between atoms: C_6  and  C_8 
REMARK    7  A    between atoms: C_7  and  C_9 
REMARK    8  A    between atoms: C_9  and  C_12 
REMARK    9  A    between atoms: C_11  and  C_15 
REMARK   10  A    between atoms: C_12  and  C_14 
ROOT
HETATM    1  N   LIG     1     -21.261 -16.572  -9.338  1.00  0.00    -0.331 N 
HETATM    2  N   LIG     1     -23.269 -15.908 -10.020  1.00  0.00    -0.233 NA
HETATM    3  C   LIG     1     -22.000 -16.014 -10.343  1.00  0.00     0.107 A 
HETATM    4  C   LIG     1     -22.109 -16.843  -8.295  1.00  0.00     0.065 A 
HETATM    5  C   LIG     1     -23.356 -16.420  -8.746  1.00  0.00     0.085 A 
HETATM    6  C   LIG     1     -21.899 -17.405  -7.035  1.00  0.00     0.032 A 
HETATM    7  C   LIG     1     -24.472 -16.558  -7.902  1.00  0.00     0.034 A 
HETATM    8  C   LIG     1     -23.019 -17.536  -6.209  1.00  0.00     0.002 A 
HETATM    9  C   LIG     1     -24.284 -17.120  -6.633  1.00  0.00     0.002 A 
ENDROOT
BRANCH   3  10
HETATM   10  C   LIG     1     -21.382 -15.587 -11.652  1.00  0.00     0.079 C 
BRANCH  10  11
HETATM   11  C   LIG     1     -22.377 -15.585 -12.818  1.00  0.00     0.008 C 
BRANCH  11  12
HETATM   12  C   LIG     1     -22.201 -14.390 -13.762  1.00  0.00     0.002 C 
BRANCH  12  13
HETATM   13  C   LIG     1     -22.343 -14.817 -15.227  1.00  0.00     0.020 C 
BRANCH  13  14
HETATM   14  C   LIG     1     -23.670 -15.514 -15.507  1.00  0.00     0.122 C 
BRANCH  14  15
HETATM   15  N   LIG     1     -23.522 -16.935 -15.662  1.00  0.00    -0.361 N 
HETATM   16  C   LIG     1     -24.476 -17.855 -15.248  1.00  0.00     0.213 C 
HETATM   17  O   LIG     1     -25.544 -17.582 -14.707  1.00  0.00    -0.274 OA
HETATM   18  C   LIG     1     -24.081 -19.275 -15.555  1.00  0.00     0.117 C 
HETATM   19  H   LIG     1     -22.676 -17.274 -16.112  1.00  0.00     0.162 HD
ENDBRANCH  14  15
ENDBRANCH  13  14
ENDBRANCH  12  13
ENDBRANCH  11  12
ENDBRANCH  10  11
ENDBRANCH   3  10
BRANCH   1  20
HETATM   20  C   LIG     1     -19.839 -16.830  -9.364  1.00  0.00     0.156 C 
BRANCH  20  21
HETATM   21  C   LIG     1     -19.504 -18.199  -9.942  1.00  0.00     0.187 C 
BRANCH  21  22
HETATM   22  O   LIG     1     -18.598 -18.874  -9.080  1.00  0.00    -0.390 OA
BRANCH  22  23
HETATM   23  C   LIG     1     -18.955 -20.240  -8.916  1.00  0.00     0.163 C 
HETATM   24  C   LIG     1     -19.423 -20.461  -7.494  1.00  0.00     0.033 C 
ENDBRANCH  22  23
ENDBRANCH  21  22
ENDBRANCH  20  21
ENDBRANCH   1  20
TORSDOF 10
ENDMDL
