MODEL 1
REMARK VINA RESULT:      -9.7      0.000      0.000
REMARK  1 active torsions:
REMARK  status: ('A' for Active; 'I' for Inactive)
REMARK    1  A    between atoms: C_10  and  C_15 
ROOT
HETATM    1 CL   LIG     1     -18.368 -17.716 -10.350  1.00  0.00    -0.084 Cl
HETATM    2  N   LIG     1     -22.320 -13.778 -12.376  1.00  0.00    -0.300 N 
HETATM    3  N   LIG     1     -22.740 -13.281  -9.391  1.00  0.00    -0.282 NA
HETATM    4  N   LIG     1     -23.625 -12.644 -13.798  1.00  0.00    -0.245 NA
HETATM    5  C   LIG     1     -21.447 -14.767 -11.863  1.00  0.00     0.053 A 
HETATM    6  C   LIG     1     -22.748 -12.647 -11.712  1.00  0.00     0.056 A 
HETATM    7  C   LIG     1     -21.350 -15.030 -10.482  1.00  0.00     0.022 A 
HETATM    8  C   LIG     1     -22.284 -12.294 -10.350  1.00  0.00     0.208 C 
HETATM    9  C   LIG     1     -22.314 -14.497  -9.462  1.00  0.00     0.077 C 
HETATM   10  C   LIG     1     -22.852 -13.696 -13.644  1.00  0.00     0.107 A 
HETATM   11  C   LIG     1     -23.565 -11.988 -12.601  1.00  0.00     0.145 A 
HETATM   12  C   LIG     1     -20.633 -15.474 -12.763  1.00  0.00     0.032 A 
HETATM   13  C   LIG     1     -20.376 -15.935 -10.027  1.00  0.00     0.040 A 
HETATM   14  C   LIG     1     -22.753 -14.744 -14.686  1.00  0.00     0.091 C 
HETATM   15  C   LIG     1     -19.690 -16.389 -12.294  1.00  0.00     0.026 A 
HETATM   16  C   LIG     1     -19.550 -16.607 -10.928  1.00  0.00     0.035 A 
ENDROOT
BRANCH   9  17
HETATM   17  C   LIG     1     -22.861 -15.445  -8.447  1.00  0.00     0.032 A 
HETATM   18  C   LIG     1     -22.155 -15.682  -7.276  1.00  0.00     0.129 A 
HETATM   19  F   LIG     1     -20.985 -15.071  -7.040  1.00  0.00    -0.205 F 
HETATM   20  C   LIG     1     -22.670 -16.567  -6.330  1.00  0.00     0.043 A 
HETATM   21  C   LIG     1     -23.886 -17.208  -6.562  1.00  0.00     0.003 A 
HETATM   22  C   LIG     1     -24.588 -16.963  -7.743  1.00  0.00     0.001 A 
HETATM   23  C   LIG     1     -24.073 -16.078  -8.689  1.00  0.00     0.017 A 
ENDBRANCH   9  17
TORSDOF 1
ENDMDL
