MODEL 1
REMARK VINA RESULT:      -7.1      0.000      0.000
REMARK  1 active torsions:
REMARK  status: ('A' for Active; 'I' for Inactive)
REMARK    1  A    between atoms: O_2  and  C_9 
ROOT
HETATM    1 BR   LIG     1     -25.167 -23.905 -15.725  1.00  0.00    -0.051 Br
HETATM    2  N   LIG     1     -19.756 -21.209 -14.176  1.00  0.00    -0.191 NA
HETATM    3  C   LIG     1     -22.941 -19.844 -14.928  1.00  0.00    -0.002 A 
HETATM    4  C   LIG     1     -24.311 -19.843 -15.283  1.00  0.00    -0.023 A 
HETATM    5  C   LIG     1     -22.291 -18.622 -14.695  1.00  0.00     0.050 A 
HETATM    6  C   LIG     1     -22.262 -21.069 -14.820  1.00  0.00     0.057 A 
HETATM    7  C   LIG     1     -24.991 -18.618 -15.393  1.00  0.00     0.015 A 
HETATM    8  C   LIG     1     -22.982 -17.414 -14.808  1.00  0.00     0.069 A 
HETATM    9  C   LIG     1     -24.961 -21.065 -15.519  1.00  0.00     0.031 A 
HETATM   10  C   LIG     1     -24.329 -17.413 -15.156  1.00  0.00     0.037 A 
HETATM   11  C   LIG     1     -22.923 -22.273 -15.056  1.00  0.00     0.042 A 
HETATM   12  C   LIG     1     -24.270 -22.272 -15.406  1.00  0.00     0.013 A 
HETATM   13  C   LIG     1     -20.873 -21.146 -14.463  1.00  0.00     0.100 C 
ENDROOT
BRANCH   8  14
HETATM   14  O   LIG     1     -22.338 -16.238 -14.577  1.00  0.00    -0.356 OA
HETATM   15  C   LIG     1     -20.924 -16.298 -14.391  1.00  0.00     0.210 C 
ENDBRANCH   8  14
TORSDOF 1
ENDMDL
MODEL 2
REMARK VINA RESULT:      -6.9      2.317      3.575
REMARK  1 active torsions:
REMARK  status: ('A' for Active; 'I' for Inactive)
REMARK    1  A    between atoms: O_2  and  C_9 
ROOT
HETATM    1 BR   LIG     1     -25.457 -23.004 -15.957  1.00  0.00    -0.051 Br
HETATM    2  N   LIG     1     -24.196 -16.931 -15.266  1.00  0.00    -0.191 NA
HETATM    3  C   LIG     1     -22.251 -19.830 -14.643  1.00  0.00    -0.002 A 
HETATM    4  C   LIG     1     -21.947 -21.211 -14.579  1.00  0.00    -0.023 A 
HETATM    5  C   LIG     1     -21.281 -18.895 -14.246  1.00  0.00     0.050 A 
HETATM    6  C   LIG     1     -23.516 -19.426 -15.100  1.00  0.00     0.057 A 
HETATM    7  C   LIG     1     -20.682 -21.616 -14.121  1.00  0.00     0.015 A 
HETATM    8  C   LIG     1     -20.029 -19.315 -13.793  1.00  0.00     0.069 A 
HETATM    9  C   LIG     1     -22.917 -22.147 -14.975  1.00  0.00     0.031 A 
HETATM   10  C   LIG     1     -19.731 -20.672 -13.732  1.00  0.00     0.037 A 
HETATM   11  C   LIG     1     -24.467 -20.368 -15.489  1.00  0.00     0.042 A 
HETATM   12  C   LIG     1     -24.168 -21.726 -15.427  1.00  0.00     0.013 A 
HETATM   13  C   LIG     1     -23.893 -18.043 -15.192  1.00  0.00     0.100 C 
ENDROOT
BRANCH   8  14
HETATM   14  O   LIG     1     -19.100 -18.396 -13.414  1.00  0.00    -0.356 OA
HETATM   15  C   LIG     1     -18.939 -18.176 -12.013  1.00  0.00     0.210 C 
ENDBRANCH   8  14
TORSDOF 1
ENDMDL
MODEL 3
REMARK VINA RESULT:      -6.8      6.980      7.686
REMARK  1 active torsions:
REMARK  status: ('A' for Active; 'I' for Inactive)
REMARK    1  A    between atoms: O_2  and  C_9 
ROOT
HETATM    1 BR   LIG     1     -23.901 -13.427 -17.438  1.00  0.00    -0.051 Br
HETATM    2  N   LIG     1     -18.648 -14.159 -14.148  1.00  0.00    -0.191 NA
HETATM    3  C   LIG     1     -21.854 -12.950 -13.235  1.00  0.00    -0.002 A 
HETATM    4  C   LIG     1     -23.210 -12.585 -13.407  1.00  0.00    -0.023 A 
HETATM    5  C   LIG     1     -21.258 -12.801 -11.972  1.00  0.00     0.050 A 
HETATM    6  C   LIG     1     -21.134 -13.452 -14.331  1.00  0.00     0.057 A 
HETATM    7  C   LIG     1     -23.931 -12.081 -12.311  1.00  0.00     0.015 A 
HETATM    8  C   LIG     1     -21.989 -12.299 -10.894  1.00  0.00     0.069 A 
HETATM    9  C   LIG     1     -23.807 -12.733 -14.670  1.00  0.00     0.031 A 
HETATM   10  C   LIG     1     -23.322 -11.941 -11.063  1.00  0.00     0.037 A 
HETATM   11  C   LIG     1     -21.742 -13.593 -15.578  1.00  0.00     0.042 A 
HETATM   12  C   LIG     1     -23.076 -13.234 -15.748  1.00  0.00     0.013 A 
HETATM   13  C   LIG     1     -19.756 -13.844 -14.230  1.00  0.00     0.100 C 
ENDROOT
BRANCH   8  14
HETATM   14  O   LIG     1     -21.397 -12.162  -9.677  1.00  0.00    -0.356 OA
HETATM   15  C   LIG     1     -21.157 -13.356  -8.934  1.00  0.00     0.210 C 
ENDBRANCH   8  14
TORSDOF 1
ENDMDL
MODEL 4
REMARK VINA RESULT:      -6.7      3.633      5.689
REMARK  1 active torsions:
REMARK  status: ('A' for Active; 'I' for Inactive)
REMARK    1  A    between atoms: O_2  and  C_9 
ROOT
HETATM    1 BR   LIG     1     -19.858 -20.418 -13.794  1.00  0.00    -0.051 Br
HETATM    2  N   LIG     1     -25.383 -18.201 -15.669  1.00  0.00    -0.191 NA
HETATM    3  C   LIG     1     -24.165 -21.513 -15.320  1.00  0.00    -0.002 A 
HETATM    4  C   LIG     1     -23.239 -22.540 -15.020  1.00  0.00    -0.023 A 
HETATM    5  C   LIG     1     -25.448 -21.858 -15.776  1.00  0.00     0.050 A 
HETATM    6  C   LIG     1     -23.781 -20.172 -15.157  1.00  0.00     0.057 A 
HETATM    7  C   LIG     1     -23.622 -23.881 -15.184  1.00  0.00     0.015 A 
HETATM    8  C   LIG     1     -25.813 -23.197 -15.933  1.00  0.00     0.069 A 
HETATM    9  C   LIG     1     -21.955 -22.196 -14.565  1.00  0.00     0.031 A 
HETATM   10  C   LIG     1     -24.902 -24.205 -15.637  1.00  0.00     0.037 A 
HETATM   11  C   LIG     1     -22.503 -19.848 -14.704  1.00  0.00     0.042 A 
HETATM   12  C   LIG     1     -21.591 -20.858 -14.409  1.00  0.00     0.013 A 
HETATM   13  C   LIG     1     -24.669 -19.080 -15.441  1.00  0.00     0.100 C 
ENDROOT
BRANCH   8  14
HETATM   14  O   LIG     1     -27.060 -23.514 -16.374  1.00  0.00    -0.356 OA
HETATM   15  C   LIG     1     -27.162 -24.567 -17.332  1.00  0.00     0.210 C 
ENDBRANCH   8  14
TORSDOF 1
ENDMDL
MODEL 5
REMARK VINA RESULT:      -6.7      7.492      8.565
REMARK  1 active torsions:
REMARK  status: ('A' for Active; 'I' for Inactive)
REMARK    1  A    between atoms: O_2  and  C_9 
ROOT
HETATM    1 BR   LIG     1     -22.956 -12.646  -9.839  1.00  0.00    -0.051 Br
HETATM    2  N   LIG     1     -22.950 -17.533  -5.957  1.00  0.00    -0.191 NA
HETATM    3  C   LIG     1     -21.021 -16.811  -8.844  1.00  0.00    -0.002 A 
HETATM    4  C   LIG     1     -20.575 -16.074  -9.966  1.00  0.00    -0.023 A 
HETATM    5  C   LIG     1     -20.433 -18.055  -8.561  1.00  0.00     0.050 A 
HETATM    6  C   LIG     1     -22.044 -16.284  -8.039  1.00  0.00     0.057 A 
HETATM    7  C   LIG     1     -19.552 -16.601 -10.772  1.00  0.00     0.015 A 
HETATM    8  C   LIG     1     -19.418 -18.563  -9.373  1.00  0.00     0.069 A 
HETATM    9  C   LIG     1     -21.164 -14.831 -10.250  1.00  0.00     0.031 A 
HETATM   10  C   LIG     1     -18.978 -17.838 -10.476  1.00  0.00     0.037 A 
HETATM   11  C   LIG     1     -22.618 -15.049  -8.335  1.00  0.00     0.042 A 
HETATM   12  C   LIG     1     -22.179 -14.323  -9.439  1.00  0.00     0.013 A 
HETATM   13  C   LIG     1     -22.546 -16.977  -6.885  1.00  0.00     0.100 C 
ENDROOT
BRANCH   8  14
HETATM   14  O   LIG     1     -18.856 -19.769  -9.085  1.00  0.00    -0.356 OA
HETATM   15  C   LIG     1     -19.151 -20.333  -7.807  1.00  0.00     0.210 C 
ENDBRANCH   8  14
TORSDOF 1
ENDMDL
MODEL 6
REMARK VINA RESULT:      -6.6      6.834      7.440
REMARK  1 active torsions:
REMARK  status: ('A' for Active; 'I' for Inactive)
REMARK    1  A    between atoms: O_2  and  C_9 
ROOT
HETATM    1 BR   LIG     1     -24.102 -17.114  -6.853  1.00  0.00    -0.051 Br
HETATM    2  N   LIG     1     -19.223 -17.702 -10.701  1.00  0.00    -0.191 NA
HETATM    3  C   LIG     1     -21.416 -14.988 -10.070  1.00  0.00    -0.002 A 
HETATM    4  C   LIG     1     -22.494 -14.290  -9.475  1.00  0.00    -0.023 A 
HETATM    5  C   LIG     1     -20.625 -14.337 -11.031  1.00  0.00     0.050 A 
HETATM    6  C   LIG     1     -21.164 -16.316  -9.689  1.00  0.00     0.057 A 
HETATM    7  C   LIG     1     -22.747 -12.962  -9.856  1.00  0.00     0.015 A 
HETATM    8  C   LIG     1     -20.891 -13.017 -11.398  1.00  0.00     0.069 A 
HETATM    9  C   LIG     1     -23.287 -14.940  -8.515  1.00  0.00     0.031 A 
HETATM   10  C   LIG     1     -21.949 -12.331 -10.812  1.00  0.00     0.037 A 
HETATM   11  C   LIG     1     -21.962 -16.946  -8.735  1.00  0.00     0.042 A 
HETATM   12  C   LIG     1     -23.022 -16.260  -8.149  1.00  0.00     0.013 A 
HETATM   13  C   LIG     1     -20.088 -17.084 -10.250  1.00  0.00     0.100 C 
ENDROOT
BRANCH   8  14
HETATM   14  O   LIG     1     -20.112 -12.401 -12.328  1.00  0.00    -0.356 OA
HETATM   15  C   LIG     1     -19.039 -13.160 -12.882  1.00  0.00     0.210 C 
ENDBRANCH   8  14
TORSDOF 1
ENDMDL
MODEL 7
REMARK VINA RESULT:      -6.5      6.770      7.059
REMARK  1 active torsions:
REMARK  status: ('A' for Active; 'I' for Inactive)
REMARK    1  A    between atoms: O_2  and  C_9 
ROOT
HETATM    1 BR   LIG     1     -23.732 -17.102  -6.483  1.00  0.00    -0.051 Br
HETATM    2  N   LIG     1     -18.761 -20.108  -8.764  1.00  0.00    -0.191 NA
HETATM    3  C   LIG     1     -20.371 -17.112  -9.767  1.00  0.00    -0.002 A 
HETATM    4  C   LIG     1     -21.324 -16.067  -9.733  1.00  0.00    -0.023 A 
HETATM    5  C   LIG     1     -19.374 -17.100 -10.756  1.00  0.00     0.050 A 
HETATM    6  C   LIG     1     -20.445 -18.139  -8.813  1.00  0.00     0.057 A 
HETATM    7  C   LIG     1     -21.252 -15.039 -10.689  1.00  0.00     0.015 A 
HETATM    8  C   LIG     1     -19.316 -16.071 -11.697  1.00  0.00     0.069 A 
HETATM    9  C   LIG     1     -22.323 -16.079  -8.745  1.00  0.00     0.031 A 
HETATM   10  C   LIG     1     -20.253 -15.043 -11.663  1.00  0.00     0.037 A 
HETATM   11  C   LIG     1     -21.443 -18.136  -7.839  1.00  0.00     0.042 A 
HETATM   12  C   LIG     1     -22.380 -17.108  -7.805  1.00  0.00     0.013 A 
HETATM   13  C   LIG     1     -19.512 -19.230  -8.786  1.00  0.00     0.100 C 
ENDROOT
BRANCH   8  14
HETATM   14  O   LIG     1     -18.343 -16.072 -12.648  1.00  0.00    -0.356 OA
HETATM   15  C   LIG     1     -18.205 -14.892 -13.438  1.00  0.00     0.210 C 
ENDBRANCH   8  14
TORSDOF 1
ENDMDL
MODEL 8
REMARK VINA RESULT:      -6.5      5.348      6.084
REMARK  1 active torsions:
REMARK  status: ('A' for Active; 'I' for Inactive)
REMARK    1  A    between atoms: O_2  and  C_9 
ROOT
HETATM    1 BR   LIG     1     -18.962 -21.870 -10.923  1.00  0.00    -0.051 Br
HETATM    2  N   LIG     1     -19.696 -16.255  -8.301  1.00  0.00    -0.191 NA
HETATM    3  C   LIG     1     -19.365 -17.252 -11.688  1.00  0.00    -0.002 A 
HETATM    4  C   LIG     1     -19.203 -18.138 -12.779  1.00  0.00    -0.023 A 
HETATM    5  C   LIG     1     -19.484 -15.874 -11.934  1.00  0.00     0.050 A 
HETATM    6  C   LIG     1     -19.402 -17.769 -10.383  1.00  0.00     0.057 A 
HETATM    7  C   LIG     1     -19.165 -17.621 -14.085  1.00  0.00     0.015 A 
HETATM    8  C   LIG     1     -19.444 -15.378 -13.238  1.00  0.00     0.069 A 
HETATM    9  C   LIG     1     -19.084 -19.516 -12.533  1.00  0.00     0.031 A 
HETATM   10  C   LIG     1     -19.285 -16.249 -14.311  1.00  0.00     0.037 A 
HETATM   11  C   LIG     1     -19.282 -19.140 -10.157  1.00  0.00     0.042 A 
HETATM   12  C   LIG     1     -19.123 -20.012 -11.230  1.00  0.00     0.013 A 
HETATM   13  C   LIG     1     -19.565 -16.930  -9.229  1.00  0.00     0.100 C 
ENDROOT
BRANCH   8  14
HETATM   14  O   LIG     1     -19.562 -14.041 -13.460  1.00  0.00    -0.356 OA
HETATM   15  C   LIG     1     -18.622 -13.189 -12.807  1.00  0.00     0.210 C 
ENDBRANCH   8  14
TORSDOF 1
ENDMDL
MODEL 9
REMARK VINA RESULT:      -6.5      6.041      6.914
REMARK  1 active torsions:
REMARK  status: ('A' for Active; 'I' for Inactive)
REMARK    1  A    between atoms: O_2  and  C_9 
ROOT
HETATM    1 BR   LIG     1     -19.177 -20.291  -8.108  1.00  0.00    -0.051 Br
HETATM    2  N   LIG     1     -21.066 -14.370  -8.672  1.00  0.00    -0.191 NA
HETATM    3  C   LIG     1     -19.761 -16.665 -11.039  1.00  0.00    -0.002 A 
HETATM    4  C   LIG     1     -19.238 -17.888 -11.521  1.00  0.00    -0.023 A 
HETATM    5  C   LIG     1     -19.928 -15.591 -11.928  1.00  0.00     0.050 A 
HETATM    6  C   LIG     1     -20.099 -16.552  -9.680  1.00  0.00     0.057 A 
HETATM    7  C   LIG     1     -18.898 -18.002 -12.880  1.00  0.00     0.015 A 
HETATM    8  C   LIG     1     -19.586 -15.722 -13.275  1.00  0.00     0.069 A 
HETATM    9  C   LIG     1     -19.069 -18.962 -10.632  1.00  0.00     0.031 A 
HETATM   10  C   LIG     1     -19.072 -16.924 -13.750  1.00  0.00     0.037 A 
HETATM   11  C   LIG     1     -19.925 -17.628  -8.811  1.00  0.00     0.042 A 
HETATM   12  C   LIG     1     -19.411 -18.831  -9.286  1.00  0.00     0.013 A 
HETATM   13  C   LIG     1     -20.635 -15.342  -9.122  1.00  0.00     0.100 C 
ENDROOT
BRANCH   8  14
HETATM   14  O   LIG     1     -19.756 -14.672 -14.124  1.00  0.00    -0.356 OA
HETATM   15  C   LIG     1     -19.705 -13.364 -13.557  1.00  0.00     0.210 C 
ENDBRANCH   8  14
TORSDOF 1
ENDMDL
