MODEL 1
REMARK VINA RESULT:      -7.4      0.000      0.000
REMARK  3 active torsions:
REMARK  status: ('A' for Active; 'I' for Inactive)
REMARK    1  A    between atoms: C_5  and  C_15 
REMARK    2  A    between atoms: C_15  and  C_16 
REMARK    3  A    between atoms: C_16  and  C_17 
ROOT
HETATM    1  O   LIG     1     -20.344 -16.104  -8.394  1.00  0.00    -0.287 OA
HETATM    2  O   LIG     1     -19.924 -16.749 -10.500  1.00  0.00    -0.238 OA
HETATM    3  N   LIG     1     -20.910 -14.661 -10.195  1.00  0.00    -0.300 N 
HETATM    4  C   LIG     1     -21.528 -13.668  -9.267  1.00  0.00     0.071 C 
HETATM    5  C   LIG     1     -20.781 -13.770  -7.912  1.00  0.00     0.047 C 
HETATM    6  C   LIG     1     -20.949 -15.207  -7.433  1.00  0.00     0.128 C 
HETATM    7  C   LIG     1     -23.034 -14.004  -9.084  1.00  0.00     0.021 C 
HETATM    8  C   LIG     1     -21.366 -12.228  -9.825  1.00  0.00     0.021 C 
HETATM    9  C   LIG     1     -22.410 -15.614  -7.215  1.00  0.00     0.030 C 
HETATM   10  C   LIG     1     -23.279 -15.374  -8.446  1.00  0.00     0.004 C 
HETATM   11  C   LIG     1     -21.728 -12.091 -11.299  1.00  0.00     0.004 C 
HETATM   12  C   LIG     1     -21.139 -14.498 -11.634  1.00  0.00     0.106 C 
HETATM   13  C   LIG     1     -20.912 -13.076 -12.120  1.00  0.00     0.024 C 
HETATM   14  C   LIG     1     -20.370 -15.882  -9.748  1.00  0.00     0.365 C 
ENDROOT
BRANCH   5  15
HETATM   15  C   LIG     1     -21.202 -12.758  -6.842  1.00  0.00     0.004 C 
BRANCH  15  16
HETATM   16  C   LIG     1     -20.013 -11.925  -6.377  1.00  0.00     0.000 C 
BRANCH  16  17
HETATM   17  C   LIG     1     -20.478 -10.713  -5.569  1.00  0.00     0.000 C 
HETATM   18  C   LIG     1     -21.886 -10.908  -5.032  1.00  0.00     0.000 C 
ENDBRANCH  16  17
ENDBRANCH  15  16
ENDBRANCH   5  15
TORSDOF 3
ENDMDL
