MODEL 1
REMARK VINA RESULT:      -8.5      0.000      0.000
REMARK  14 active torsions:
REMARK  status: ('A' for Active; 'I' for Inactive)
REMARK    1  A    between atoms: O_1  and  C_14 
REMARK    2  A    between atoms: O_1  and  C_21 
REMARK    3  A    between atoms: O_4  and  C_17 
REMARK    4  A    between atoms: O_4  and  C_22 
REMARK    5  A    between atoms: N_6  and  C_8 
REMARK       I    between atoms: N_6  and  C_12 
REMARK    6  A    between atoms: N_7  and  C_10 
REMARK    7  A    between atoms: C_8  and  C_9 
REMARK    8  A    between atoms: C_8  and  C_14 
REMARK    9  A    between atoms: C_9  and  C_11 
REMARK   10  A    between atoms: C_10  and  C_12 
REMARK   11  A    between atoms: C_10  and  C_13 
REMARK   12  A    between atoms: C_13  and  C_17 
REMARK   13  A    between atoms: C_21  and  C_23 
REMARK   14  A    between atoms: C_22  and  C_24 
ROOT
HETATM    1  O   LIG     1     -22.241 -15.767 -12.367  1.00  0.00    -0.271 OA
HETATM    2  N   LIG     1     -20.766 -15.154 -10.681  1.00  0.00    -0.345 N 
HETATM    3  C   LIG     1     -21.569 -14.915 -11.787  1.00  0.00     0.252 C 
HETATM    4  H   LIG     1     -20.232 -14.389 -10.279  1.00  0.00     0.163 HD
ENDROOT
BRANCH   2   5
HETATM    5  C   LIG     1     -20.626 -16.456 -10.071  1.00  0.00     0.188 C 
BRANCH   5   6
HETATM    6  C   LIG     1     -19.211 -17.018 -10.274  1.00  0.00     0.074 C 
BRANCH   6   7
HETATM    7  C   LIG     1     -19.127 -18.528 -10.296  1.00  0.00    -0.056 A 
HETATM    8  C   LIG     1     -18.989 -19.237  -9.102  1.00  0.00     0.007 A 
HETATM    9  C   LIG     1     -18.911 -20.629  -9.123  1.00  0.00     0.001 A 
HETATM   10  C   LIG     1     -18.971 -21.313 -10.337  1.00  0.00     0.000 A 
HETATM   11  C   LIG     1     -19.110 -20.604 -11.531  1.00  0.00     0.001 A 
HETATM   12  C   LIG     1     -19.187 -19.212 -11.510  1.00  0.00     0.007 A 
ENDBRANCH   6   7
ENDBRANCH   5   6
BRANCH   5  13
HETATM   13  C   LIG     1     -21.034 -16.456  -8.603  1.00  0.00     0.282 C 
HETATM   14  O   LIG     1     -20.476 -15.760  -7.761  1.00  0.00    -0.263 OA
BRANCH  13  15
HETATM   15  O   LIG     1     -22.059 -17.319  -8.354  1.00  0.00    -0.316 OA
BRANCH  15  16
HETATM   16  C   LIG     1     -22.416 -17.479  -6.978  1.00  0.00     0.205 C 
BRANCH  16  17
HETATM   17  C   LIG     1     -23.806 -16.971  -6.781  1.00  0.00    -0.011 C 
HETATM   18  C   LIG     1     -24.568 -16.479  -7.763  1.00  0.00     0.009 C 
ENDBRANCH  16  17
ENDBRANCH  15  16
ENDBRANCH  13  15
ENDBRANCH   5  13
ENDBRANCH   2   5
BRANCH   3  19
HETATM   19  C   LIG     1     -21.507 -13.459 -12.242  1.00  0.00     0.318 C 
BRANCH  19  20
HETATM   20  N   LIG     1     -20.221 -12.926 -11.790  1.00  0.00     0.092 N 
HETATM   21  H   LIG     1     -20.351 -12.415 -10.918  1.00  0.00     0.313 HD
HETATM   22  H   LIG     1     -19.590 -13.697 -11.576  1.00  0.00     0.313 HD
ENDBRANCH  19  20
BRANCH  19  23
HETATM   23  C   LIG     1     -21.597 -13.381 -13.767  1.00  0.00     0.156 C 
BRANCH  23  24
HETATM   24  C   LIG     1     -22.969 -12.928 -14.205  1.00  0.00     0.261 C 
HETATM   25  O   LIG     1     -23.777 -12.387 -13.461  1.00  0.00    -0.265 OA
BRANCH  24  26
HETATM   26  O   LIG     1     -23.143 -13.183 -15.533  1.00  0.00    -0.318 OA
BRANCH  26  27
HETATM   27  C   LIG     1     -24.171 -12.425 -16.177  1.00  0.00     0.205 C 
BRANCH  27  28
HETATM   28  C   LIG     1     -24.127 -12.703 -17.643  1.00  0.00    -0.011 C 
HETATM   29  C   LIG     1     -23.773 -13.880 -18.170  1.00  0.00     0.009 C 
ENDBRANCH  27  28
ENDBRANCH  26  27
ENDBRANCH  24  26
ENDBRANCH  23  24
ENDBRANCH  19  23
ENDBRANCH   3  19
TORSDOF 14
ENDMDL
MODEL 2
REMARK VINA RESULT:      -8.4      1.539      4.094
REMARK  14 active torsions:
REMARK  status: ('A' for Active; 'I' for Inactive)
REMARK    1  A    between atoms: O_1  and  C_14 
REMARK    2  A    between atoms: O_1  and  C_21 
REMARK    3  A    between atoms: O_4  and  C_17 
REMARK    4  A    between atoms: O_4  and  C_22 
REMARK    5  A    between atoms: N_6  and  C_8 
REMARK       I    between atoms: N_6  and  C_12 
REMARK    6  A    between atoms: N_7  and  C_10 
REMARK    7  A    between atoms: C_8  and  C_9 
REMARK    8  A    between atoms: C_8  and  C_14 
REMARK    9  A    between atoms: C_9  and  C_11 
REMARK   10  A    between atoms: C_10  and  C_12 
REMARK   11  A    between atoms: C_10  and  C_13 
REMARK   12  A    between atoms: C_13  and  C_17 
REMARK   13  A    between atoms: C_21  and  C_23 
REMARK   14  A    between atoms: C_22  and  C_24 
ROOT
HETATM    1  O   LIG     1     -20.379 -13.194 -11.944  1.00  0.00    -0.271 OA
HETATM    2  N   LIG     1     -21.757 -14.443 -10.555  1.00  0.00    -0.345 N 
HETATM    3  C   LIG     1     -21.493 -13.612 -11.634  1.00  0.00     0.252 C 
HETATM    4  H   LIG     1     -22.716 -14.724 -10.367  1.00  0.00     0.163 HD
ENDROOT
BRANCH   2   5
HETATM    5  C   LIG     1     -20.734 -14.922  -9.655  1.00  0.00     0.188 C 
BRANCH   5   6
HETATM    6  C   LIG     1     -21.152 -14.740  -8.188  1.00  0.00     0.074 C 
BRANCH   6   7
HETATM    7  C   LIG     1     -22.326 -15.588  -7.754  1.00  0.00    -0.056 A 
HETATM    8  C   LIG     1     -23.572 -15.417  -8.359  1.00  0.00     0.007 A 
HETATM    9  C   LIG     1     -24.655 -16.200  -7.959  1.00  0.00     0.001 A 
HETATM   10  C   LIG     1     -24.492 -17.153  -6.954  1.00  0.00     0.000 A 
HETATM   11  C   LIG     1     -23.247 -17.325  -6.350  1.00  0.00     0.001 A 
HETATM   12  C   LIG     1     -22.164 -16.543  -6.750  1.00  0.00     0.007 A 
ENDBRANCH   6   7
ENDBRANCH   5   6
BRANCH   5  13
HETATM   13  C   LIG     1     -20.322 -16.358  -9.956  1.00  0.00     0.282 C 
HETATM   14  O   LIG     1     -20.727 -16.970 -10.939  1.00  0.00    -0.263 OA
BRANCH  13  15
HETATM   15  O   LIG     1     -19.483 -16.861  -9.007  1.00  0.00    -0.316 OA
BRANCH  15  16
HETATM   16  C   LIG     1     -18.447 -17.723  -9.488  1.00  0.00     0.205 C 
BRANCH  16  17
HETATM   17  C   LIG     1     -18.880 -19.140  -9.311  1.00  0.00    -0.011 C 
HETATM   18  C   LIG     1     -19.497 -19.602  -8.218  1.00  0.00     0.009 C 
ENDBRANCH  16  17
ENDBRANCH  15  16
ENDBRANCH  13  15
ENDBRANCH   5  13
ENDBRANCH   2   5
BRANCH   3  19
HETATM   19  C   LIG     1     -22.760 -13.235 -12.398  1.00  0.00     0.318 C 
BRANCH  19  20
HETATM   20  N   LIG     1     -22.654 -11.813 -12.725  1.00  0.00     0.092 N 
HETATM   21  H   LIG     1     -22.236 -11.705 -13.648  1.00  0.00     0.313 HD
HETATM   22  H   LIG     1     -23.587 -11.408 -12.787  1.00  0.00     0.313 HD
ENDBRANCH  19  20
BRANCH  19  23
HETATM   23  C   LIG     1     -22.864 -14.059 -13.682  1.00  0.00     0.156 C 
BRANCH  23  24
HETATM   24  C   LIG     1     -22.584 -13.206 -14.896  1.00  0.00     0.261 C 
HETATM   25  O   LIG     1     -21.510 -13.193 -15.486  1.00  0.00    -0.265 OA
BRANCH  24  26
HETATM   26  O   LIG     1     -23.698 -12.499 -15.237  1.00  0.00    -0.318 OA
BRANCH  26  27
HETATM   27  C   LIG     1     -24.608 -13.169 -16.115  1.00  0.00     0.205 C 
BRANCH  27  28
HETATM   28  C   LIG     1     -24.177 -12.935 -17.525  1.00  0.00    -0.011 C 
HETATM   29  C   LIG     1     -23.800 -13.908 -18.361  1.00  0.00     0.009 C 
ENDBRANCH  27  28
ENDBRANCH  26  27
ENDBRANCH  24  26
ENDBRANCH  23  24
ENDBRANCH  19  23
ENDBRANCH   3  19
TORSDOF 14
ENDMDL
MODEL 3
REMARK VINA RESULT:      -8.2      2.538      4.252
REMARK  14 active torsions:
REMARK  status: ('A' for Active; 'I' for Inactive)
REMARK    1  A    between atoms: O_1  and  C_14 
REMARK    2  A    between atoms: O_1  and  C_21 
REMARK    3  A    between atoms: O_4  and  C_17 
REMARK    4  A    between atoms: O_4  and  C_22 
REMARK    5  A    between atoms: N_6  and  C_8 
REMARK       I    between atoms: N_6  and  C_12 
REMARK    6  A    between atoms: N_7  and  C_10 
REMARK    7  A    between atoms: C_8  and  C_9 
REMARK    8  A    between atoms: C_8  and  C_14 
REMARK    9  A    between atoms: C_9  and  C_11 
REMARK   10  A    between atoms: C_10  and  C_12 
REMARK   11  A    between atoms: C_10  and  C_13 
REMARK   12  A    between atoms: C_13  and  C_17 
REMARK   13  A    between atoms: C_21  and  C_23 
REMARK   14  A    between atoms: C_22  and  C_24 
ROOT
HETATM    1  O   LIG     1     -22.763 -15.638 -11.279  1.00  0.00    -0.271 OA
HETATM    2  N   LIG     1     -20.504 -15.582 -10.749  1.00  0.00    -0.345 N 
HETATM    3  C   LIG     1     -21.673 -15.072 -11.296  1.00  0.00     0.252 C 
HETATM    4  H   LIG     1     -19.643 -15.047 -10.826  1.00  0.00     0.163 HD
ENDROOT
BRANCH   2   5
HETATM    5  C   LIG     1     -20.434 -16.861 -10.082  1.00  0.00     0.188 C 
BRANCH   5   6
HETATM    6  C   LIG     1     -19.042 -17.494 -10.234  1.00  0.00     0.074 C 
BRANCH   6   7
HETATM    7  C   LIG     1     -19.049 -18.989 -10.461  1.00  0.00    -0.056 A 
HETATM    8  C   LIG     1     -19.199 -19.498 -11.752  1.00  0.00     0.007 A 
HETATM    9  C   LIG     1     -19.205 -20.877 -11.962  1.00  0.00     0.001 A 
HETATM   10  C   LIG     1     -19.063 -21.747 -10.881  1.00  0.00     0.000 A 
HETATM   11  C   LIG     1     -18.913 -21.239  -9.591  1.00  0.00     0.001 A 
HETATM   12  C   LIG     1     -18.906 -19.860  -9.381  1.00  0.00     0.007 A 
ENDBRANCH   6   7
ENDBRANCH   5   6
BRANCH   5  13
HETATM   13  C   LIG     1     -20.867 -16.780  -8.624  1.00  0.00     0.282 C 
HETATM   14  O   LIG     1     -20.272 -16.101  -7.793  1.00  0.00    -0.263 OA
BRANCH  13  15
HETATM   15  O   LIG     1     -21.960 -17.554  -8.368  1.00  0.00    -0.316 OA
BRANCH  15  16
HETATM   16  C   LIG     1     -22.304 -17.707  -6.988  1.00  0.00     0.205 C 
BRANCH  16  17
HETATM   17  C   LIG     1     -23.548 -16.930  -6.714  1.00  0.00    -0.011 C 
HETATM   18  C   LIG     1     -24.398 -16.522  -7.662  1.00  0.00     0.009 C 
ENDBRANCH  16  17
ENDBRANCH  15  16
ENDBRANCH  13  15
ENDBRANCH   5  13
ENDBRANCH   2   5
BRANCH   3  19
HETATM   19  C   LIG     1     -21.454 -13.717 -11.965  1.00  0.00     0.318 C 
BRANCH  19  20
HETATM   20  N   LIG     1     -22.655 -13.431 -12.751  1.00  0.00     0.092 N 
HETATM   21  H   LIG     1     -22.469 -12.661 -13.392  1.00  0.00     0.313 HD
HETATM   22  H   LIG     1     -22.880 -14.236 -13.334  1.00  0.00     0.313 HD
ENDBRANCH  19  20
BRANCH  19  23
HETATM   23  C   LIG     1     -21.254 -12.634 -10.905  1.00  0.00     0.156 C 
BRANCH  23  24
HETATM   24  C   LIG     1     -22.531 -12.384 -10.140  1.00  0.00     0.261 C 
HETATM   25  O   LIG     1     -23.526 -11.861 -10.627  1.00  0.00    -0.265 OA
BRANCH  24  26
HETATM   26  O   LIG     1     -22.411 -12.851  -8.865  1.00  0.00    -0.318 OA
BRANCH  26  27
HETATM   27  C   LIG     1     -21.079 -12.886  -8.344  1.00  0.00     0.205 C 
BRANCH  27  28
HETATM   28  C   LIG     1     -21.147 -12.967  -6.855  1.00  0.00    -0.011 C 
HETATM   29  C   LIG     1     -21.000 -11.916  -6.042  1.00  0.00     0.009 C 
ENDBRANCH  27  28
ENDBRANCH  26  27
ENDBRANCH  24  26
ENDBRANCH  23  24
ENDBRANCH  19  23
ENDBRANCH   3  19
TORSDOF 14
ENDMDL
MODEL 4
REMARK VINA RESULT:      -8.1      3.858      7.918
REMARK  14 active torsions:
REMARK  status: ('A' for Active; 'I' for Inactive)
REMARK    1  A    between atoms: O_1  and  C_14 
REMARK    2  A    between atoms: O_1  and  C_21 
REMARK    3  A    between atoms: O_4  and  C_17 
REMARK    4  A    between atoms: O_4  and  C_22 
REMARK    5  A    between atoms: N_6  and  C_8 
REMARK       I    between atoms: N_6  and  C_12 
REMARK    6  A    between atoms: N_7  and  C_10 
REMARK    7  A    between atoms: C_8  and  C_9 
REMARK    8  A    between atoms: C_8  and  C_14 
REMARK    9  A    between atoms: C_9  and  C_11 
REMARK   10  A    between atoms: C_10  and  C_12 
REMARK   11  A    between atoms: C_10  and  C_13 
REMARK   12  A    between atoms: C_13  and  C_17 
REMARK   13  A    between atoms: C_21  and  C_23 
REMARK   14  A    between atoms: C_22  and  C_24 
ROOT
HETATM    1  O   LIG     1     -25.486 -17.756 -14.101  1.00  0.00    -0.271 OA
HETATM    2  N   LIG     1     -23.185 -17.549 -14.326  1.00  0.00    -0.345 N 
HETATM    3  C   LIG     1     -24.395 -18.221 -14.424  1.00  0.00     0.252 C 
HETATM    4  H   LIG     1     -22.329 -18.022 -14.603  1.00  0.00     0.163 HD
ENDROOT
BRANCH   2   5
HETATM    5  C   LIG     1     -23.066 -16.200 -13.823  1.00  0.00     0.188 C 
BRANCH   5   6
HETATM    6  C   LIG     1     -21.965 -16.096 -12.757  1.00  0.00     0.074 C 
BRANCH   6   7
HETATM    7  C   LIG     1     -22.385 -15.403 -11.481  1.00  0.00    -0.056 A 
HETATM    8  C   LIG     1     -22.278 -14.016 -11.372  1.00  0.00     0.007 A 
HETATM    9  C   LIG     1     -22.665 -13.377 -10.194  1.00  0.00     0.001 A 
HETATM   10  C   LIG     1     -23.157 -14.125  -9.125  1.00  0.00     0.000 A 
HETATM   11  C   LIG     1     -23.265 -15.511  -9.233  1.00  0.00     0.001 A 
HETATM   12  C   LIG     1     -22.878 -16.150 -10.411  1.00  0.00     0.007 A 
ENDBRANCH   6   7
ENDBRANCH   5   6
BRANCH   5  13
HETATM   13  C   LIG     1     -22.878 -15.180 -14.939  1.00  0.00     0.282 C 
HETATM   14  O   LIG     1     -22.043 -14.283 -14.881  1.00  0.00    -0.263 OA
BRANCH  13  15
HETATM   15  O   LIG     1     -23.746 -15.379 -15.971  1.00  0.00    -0.316 OA
BRANCH  15  16
HETATM   16  C   LIG     1     -24.759 -14.382 -16.132  1.00  0.00     0.205 C 
BRANCH  16  17
HETATM   17  C   LIG     1     -24.361 -13.469 -17.244  1.00  0.00    -0.011 C 
HETATM   18  C   LIG     1     -23.791 -13.881 -18.381  1.00  0.00     0.009 C 
ENDBRANCH  16  17
ENDBRANCH  15  16
ENDBRANCH  13  15
ENDBRANCH   5  13
ENDBRANCH   2   5
BRANCH   3  19
HETATM   19  C   LIG     1     -24.226 -19.641 -14.958  1.00  0.00     0.318 C 
BRANCH  19  20
HETATM   20  N   LIG     1     -24.706 -19.637 -16.340  1.00  0.00     0.092 N 
HETATM   21  H   LIG     1     -24.649 -20.579 -16.725  1.00  0.00     0.313 HD
HETATM   22  H   LIG     1     -25.693 -19.385 -16.356  1.00  0.00     0.313 HD
ENDBRANCH  19  20
BRANCH  19  23
HETATM   23  C   LIG     1     -22.751 -20.044 -14.920  1.00  0.00     0.156 C 
BRANCH  23  24
HETATM   24  C   LIG     1     -22.601 -21.546 -14.909  1.00  0.00     0.261 C 
HETATM   25  O   LIG     1     -23.435 -22.318 -15.365  1.00  0.00    -0.265 OA
BRANCH  24  26
HETATM   26  O   LIG     1     -21.405 -21.892 -14.353  1.00  0.00    -0.318 OA
BRANCH  26  27
HETATM   27  C   LIG     1     -20.489 -20.814 -14.139  1.00  0.00     0.205 C 
BRANCH  27  28
HETATM   28  C   LIG     1     -19.594 -21.163 -12.997  1.00  0.00    -0.011 C 
HETATM   29  C   LIG     1     -19.225 -20.299 -12.045  1.00  0.00     0.009 C 
ENDBRANCH  27  28
ENDBRANCH  26  27
ENDBRANCH  24  26
ENDBRANCH  23  24
ENDBRANCH  19  23
ENDBRANCH   3  19
TORSDOF 14
ENDMDL
MODEL 5
REMARK VINA RESULT:      -8.1      3.943      8.475
REMARK  14 active torsions:
REMARK  status: ('A' for Active; 'I' for Inactive)
REMARK    1  A    between atoms: O_1  and  C_14 
REMARK    2  A    between atoms: O_1  and  C_21 
REMARK    3  A    between atoms: O_4  and  C_17 
REMARK    4  A    between atoms: O_4  and  C_22 
REMARK    5  A    between atoms: N_6  and  C_8 
REMARK       I    between atoms: N_6  and  C_12 
REMARK    6  A    between atoms: N_7  and  C_10 
REMARK    7  A    between atoms: C_8  and  C_9 
REMARK    8  A    between atoms: C_8  and  C_14 
REMARK    9  A    between atoms: C_9  and  C_11 
REMARK   10  A    between atoms: C_10  and  C_12 
REMARK   11  A    between atoms: C_10  and  C_13 
REMARK   12  A    between atoms: C_13  and  C_17 
REMARK   13  A    between atoms: C_21  and  C_23 
REMARK   14  A    between atoms: C_22  and  C_24 
ROOT
HETATM    1  O   LIG     1     -25.581 -18.041 -13.919  1.00  0.00    -0.271 OA
HETATM    2  N   LIG     1     -23.738 -17.434 -15.194  1.00  0.00    -0.345 N 
HETATM    3  C   LIG     1     -24.657 -18.335 -14.675  1.00  0.00     0.252 C 
HETATM    4  H   LIG     1     -22.996 -17.773 -15.800  1.00  0.00     0.163 HD
ENDROOT
BRANCH   2   5
HETATM    5  C   LIG     1     -23.763 -16.020 -14.900  1.00  0.00     0.188 C 
BRANCH   5   6
HETATM    6  C   LIG     1     -22.363 -15.501 -14.536  1.00  0.00     0.074 C 
BRANCH   6   7
HETATM    7  C   LIG     1     -22.299 -14.701 -13.255  1.00  0.00    -0.056 A 
HETATM    8  C   LIG     1     -22.190 -13.311 -13.306  1.00  0.00     0.007 A 
HETATM    9  C   LIG     1     -22.130 -12.572 -12.124  1.00  0.00     0.001 A 
HETATM   10  C   LIG     1     -22.178 -13.224 -10.891  1.00  0.00     0.000 A 
HETATM   11  C   LIG     1     -22.287 -14.613 -10.841  1.00  0.00     0.001 A 
HETATM   12  C   LIG     1     -22.347 -15.352 -12.023  1.00  0.00     0.007 A 
ENDBRANCH   6   7
ENDBRANCH   5   6
BRANCH   5  13
HETATM   13  C   LIG     1     -24.400 -15.205 -16.019  1.00  0.00     0.282 C 
HETATM   14  O   LIG     1     -25.614 -15.139 -16.180  1.00  0.00    -0.263 OA
BRANCH  13  15
HETATM   15  O   LIG     1     -23.468 -14.594 -16.803  1.00  0.00    -0.316 OA
BRANCH  15  16
HETATM   16  C   LIG     1     -23.963 -14.006 -18.011  1.00  0.00     0.205 C 
BRANCH  16  17
HETATM   17  C   LIG     1     -23.756 -12.530 -17.946  1.00  0.00    -0.011 C 
HETATM   18  C   LIG     1     -24.326 -11.735 -17.034  1.00  0.00     0.009 C 
ENDBRANCH  16  17
ENDBRANCH  15  16
ENDBRANCH  13  15
ENDBRANCH   5  13
ENDBRANCH   2   5
BRANCH   3  19
HETATM   19  C   LIG     1     -24.379 -19.767 -15.125  1.00  0.00     0.318 C 
BRANCH  19  20
HETATM   20  N   LIG     1     -24.741 -19.848 -16.540  1.00  0.00     0.092 N 
HETATM   21  H   LIG     1     -25.506 -20.511 -16.660  1.00  0.00     0.313 HD
HETATM   22  H   LIG     1     -25.098 -18.945 -16.852  1.00  0.00     0.313 HD
ENDBRANCH  19  20
BRANCH  19  23
HETATM   23  C   LIG     1     -22.896 -20.094 -14.947  1.00  0.00     0.156 C 
BRANCH  23  24
HETATM   24  C   LIG     1     -22.663 -21.586 -14.980  1.00  0.00     0.261 C 
HETATM   25  O   LIG     1     -23.366 -22.371 -15.604  1.00  0.00    -0.265 OA
BRANCH  24  26
HETATM   26  O   LIG     1     -21.556 -21.902 -14.250  1.00  0.00    -0.318 OA
BRANCH  26  27
HETATM   27  C   LIG     1     -20.559 -20.880 -14.166  1.00  0.00     0.205 C 
BRANCH  27  28
HETATM   28  C   LIG     1     -19.620 -21.214 -13.055  1.00  0.00    -0.011 C 
HETATM   29  C   LIG     1     -19.239 -20.346 -12.112  1.00  0.00     0.009 C 
ENDBRANCH  27  28
ENDBRANCH  26  27
ENDBRANCH  24  26
ENDBRANCH  23  24
ENDBRANCH  19  23
ENDBRANCH   3  19
TORSDOF 14
ENDMDL
MODEL 6
REMARK VINA RESULT:      -8.0      2.917      4.544
REMARK  14 active torsions:
REMARK  status: ('A' for Active; 'I' for Inactive)
REMARK    1  A    between atoms: O_1  and  C_14 
REMARK    2  A    between atoms: O_1  and  C_21 
REMARK    3  A    between atoms: O_4  and  C_17 
REMARK    4  A    between atoms: O_4  and  C_22 
REMARK    5  A    between atoms: N_6  and  C_8 
REMARK       I    between atoms: N_6  and  C_12 
REMARK    6  A    between atoms: N_7  and  C_10 
REMARK    7  A    between atoms: C_8  and  C_9 
REMARK    8  A    between atoms: C_8  and  C_14 
REMARK    9  A    between atoms: C_9  and  C_11 
REMARK   10  A    between atoms: C_10  and  C_12 
REMARK   11  A    between atoms: C_10  and  C_13 
REMARK   12  A    between atoms: C_13  and  C_17 
REMARK   13  A    between atoms: C_21  and  C_23 
REMARK   14  A    between atoms: C_22  and  C_24 
ROOT
HETATM    1  O   LIG     1     -23.304 -12.056 -12.225  1.00  0.00    -0.271 OA
HETATM    2  N   LIG     1     -22.504 -14.207 -12.574  1.00  0.00    -0.345 N 
HETATM    3  C   LIG     1     -22.957 -12.960 -12.982  1.00  0.00     0.252 C 
HETATM    4  H   LIG     1     -22.255 -14.899 -13.275  1.00  0.00     0.163 HD
ENDROOT
BRANCH   2   5
HETATM    5  C   LIG     1     -22.384 -14.591 -11.187  1.00  0.00     0.188 C 
BRANCH   5   6
HETATM    6  C   LIG     1     -22.809 -16.052 -10.974  1.00  0.00     0.074 C 
BRANCH   6   7
HETATM    7  C   LIG     1     -23.060 -16.434  -9.533  1.00  0.00    -0.056 A 
HETATM    8  C   LIG     1     -22.108 -17.173  -8.830  1.00  0.00     0.007 A 
HETATM    9  C   LIG     1     -22.340 -17.526  -7.501  1.00  0.00     0.001 A 
HETATM   10  C   LIG     1     -23.525 -17.140  -6.874  1.00  0.00     0.000 A 
HETATM   11  C   LIG     1     -24.477 -16.401  -7.576  1.00  0.00     0.001 A 
HETATM   12  C   LIG     1     -24.244 -16.048  -8.905  1.00  0.00     0.007 A 
ENDBRANCH   6   7
ENDBRANCH   5   6
BRANCH   5  13
HETATM   13  C   LIG     1     -20.995 -14.314 -10.625  1.00  0.00     0.282 C 
HETATM   14  O   LIG     1     -20.055 -15.089 -10.773  1.00  0.00    -0.263 OA
BRANCH  13  15
HETATM   15  O   LIG     1     -20.943 -13.136  -9.943  1.00  0.00    -0.316 OA
BRANCH  15  16
HETATM   16  C   LIG     1     -21.950 -12.951  -8.943  1.00  0.00     0.205 C 
BRANCH  16  17
HETATM   17  C   LIG     1     -21.480 -13.568  -7.668  1.00  0.00    -0.011 C 
HETATM   18  C   LIG     1     -20.987 -12.872  -6.638  1.00  0.00     0.009 C 
ENDBRANCH  16  17
ENDBRANCH  15  16
ENDBRANCH  13  15
ENDBRANCH   5  13
ENDBRANCH   2   5
BRANCH   3  19
HETATM   19  C   LIG     1     -23.013 -12.834 -14.502  1.00  0.00     0.318 C 
BRANCH  19  20
HETATM   20  N   LIG     1     -21.796 -13.455 -15.026  1.00  0.00     0.092 N 
HETATM   21  H   LIG     1     -21.906 -13.636 -16.023  1.00  0.00     0.313 HD
HETATM   22  H   LIG     1     -21.017 -12.802 -14.941  1.00  0.00     0.313 HD
ENDBRANCH  19  20
BRANCH  19  23
HETATM   23  C   LIG     1     -24.244 -13.562 -15.044  1.00  0.00     0.156 C 
BRANCH  23  24
HETATM   24  C   LIG     1     -23.849 -14.831 -15.762  1.00  0.00     0.261 C 
HETATM   25  O   LIG     1     -23.675 -14.903 -16.972  1.00  0.00    -0.265 OA
BRANCH  24  26
HETATM   26  O   LIG     1     -23.692 -15.845 -14.865  1.00  0.00    -0.318 OA
BRANCH  26  27
HETATM   27  C   LIG     1     -23.706 -17.165 -15.417  1.00  0.00     0.205 C 
BRANCH  27  28
HETATM   28  C   LIG     1     -24.855 -17.918 -14.835  1.00  0.00    -0.011 C 
HETATM   29  C   LIG     1     -25.055 -18.080 -13.523  1.00  0.00     0.009 C 
ENDBRANCH  27  28
ENDBRANCH  26  27
ENDBRANCH  24  26
ENDBRANCH  23  24
ENDBRANCH  19  23
ENDBRANCH   3  19
TORSDOF 14
ENDMDL
MODEL 7
REMARK VINA RESULT:      -7.8      1.671      2.080
REMARK  14 active torsions:
REMARK  status: ('A' for Active; 'I' for Inactive)
REMARK    1  A    between atoms: O_1  and  C_14 
REMARK    2  A    between atoms: O_1  and  C_21 
REMARK    3  A    between atoms: O_4  and  C_17 
REMARK    4  A    between atoms: O_4  and  C_22 
REMARK    5  A    between atoms: N_6  and  C_8 
REMARK       I    between atoms: N_6  and  C_12 
REMARK    6  A    between atoms: N_7  and  C_10 
REMARK    7  A    between atoms: C_8  and  C_9 
REMARK    8  A    between atoms: C_8  and  C_14 
REMARK    9  A    between atoms: C_9  and  C_11 
REMARK   10  A    between atoms: C_10  and  C_12 
REMARK   11  A    between atoms: C_10  and  C_13 
REMARK   12  A    between atoms: C_13  and  C_17 
REMARK   13  A    between atoms: C_21  and  C_23 
REMARK   14  A    between atoms: C_22  and  C_24 
ROOT
HETATM    1  O   LIG     1     -20.677 -13.852 -11.673  1.00  0.00    -0.271 OA
HETATM    2  N   LIG     1     -21.948 -15.762 -11.318  1.00  0.00    -0.345 N 
HETATM    3  C   LIG     1     -21.571 -14.623 -12.015  1.00  0.00     0.252 C 
HETATM    4  H   LIG     1     -22.712 -16.331 -11.671  1.00  0.00     0.163 HD
ENDROOT
BRANCH   2   5
HETATM    5  C   LIG     1     -21.320 -16.181 -10.086  1.00  0.00     0.188 C 
BRANCH   5   6
HETATM    6  C   LIG     1     -19.856 -16.586 -10.316  1.00  0.00     0.074 C 
BRANCH   6   7
HETATM    7  C   LIG     1     -19.552 -18.040 -10.037  1.00  0.00    -0.056 A 
HETATM    8  C   LIG     1     -19.223 -18.899 -11.087  1.00  0.00     0.007 A 
HETATM    9  C   LIG     1     -18.943 -20.240 -10.830  1.00  0.00     0.001 A 
HETATM   10  C   LIG     1     -18.991 -20.725  -9.523  1.00  0.00     0.000 A 
HETATM   11  C   LIG     1     -19.319 -19.867  -8.473  1.00  0.00     0.001 A 
HETATM   12  C   LIG     1     -19.599 -18.525  -8.730  1.00  0.00     0.007 A 
ENDBRANCH   6   7
ENDBRANCH   5   6
BRANCH   5  13
HETATM   13  C   LIG     1     -21.457 -15.140  -8.981  1.00  0.00     0.282 C 
HETATM   14  O   LIG     1     -20.512 -14.461  -8.592  1.00  0.00    -0.263 OA
BRANCH  13  15
HETATM   15  O   LIG     1     -22.725 -15.079  -8.487  1.00  0.00    -0.316 OA
BRANCH  15  16
HETATM   16  C   LIG     1     -23.082 -16.113  -7.564  1.00  0.00     0.205 C 
BRANCH  16  17
HETATM   17  C   LIG     1     -24.373 -16.720  -8.000  1.00  0.00    -0.011 C 
HETATM   18  C   LIG     1     -24.617 -17.148  -9.243  1.00  0.00     0.009 C 
ENDBRANCH  16  17
ENDBRANCH  15  16
ENDBRANCH  13  15
ENDBRANCH   5  13
ENDBRANCH   2   5
BRANCH   3  19
HETATM   19  C   LIG     1     -22.421 -14.403 -13.264  1.00  0.00     0.318 C 
BRANCH  19  20
HETATM   20  N   LIG     1     -21.792 -13.321 -14.022  1.00  0.00     0.092 N 
HETATM   21  H   LIG     1     -21.458 -13.679 -14.916  1.00  0.00     0.313 HD
HETATM   22  H   LIG     1     -22.490 -12.611 -14.245  1.00  0.00     0.313 HD
ENDBRANCH  19  20
BRANCH  19  23
HETATM   23  C   LIG     1     -22.456 -15.678 -14.107  1.00  0.00     0.156 C 
BRANCH  23  24
HETATM   24  C   LIG     1     -23.622 -15.660 -15.066  1.00  0.00     0.261 C 
HETATM   25  O   LIG     1     -24.019 -16.646 -15.675  1.00  0.00    -0.265 OA
BRANCH  24  26
HETATM   26  O   LIG     1     -24.166 -14.411 -15.118  1.00  0.00    -0.318 OA
BRANCH  26  27
HETATM   27  C   LIG     1     -24.972 -14.136 -16.267  1.00  0.00     0.205 C 
BRANCH  27  28
HETATM   28  C   LIG     1     -24.104 -13.564 -17.338  1.00  0.00    -0.011 C 
HETATM   29  C   LIG     1     -23.996 -12.256 -17.592  1.00  0.00     0.009 C 
ENDBRANCH  27  28
ENDBRANCH  26  27
ENDBRANCH  24  26
ENDBRANCH  23  24
ENDBRANCH  19  23
ENDBRANCH   3  19
TORSDOF 14
ENDMDL
MODEL 8
REMARK VINA RESULT:      -7.8      2.531      7.938
REMARK  14 active torsions:
REMARK  status: ('A' for Active; 'I' for Inactive)
REMARK    1  A    between atoms: O_1  and  C_14 
REMARK    2  A    between atoms: O_1  and  C_21 
REMARK    3  A    between atoms: O_4  and  C_17 
REMARK    4  A    between atoms: O_4  and  C_22 
REMARK    5  A    between atoms: N_6  and  C_8 
REMARK       I    between atoms: N_6  and  C_12 
REMARK    6  A    between atoms: N_7  and  C_10 
REMARK    7  A    between atoms: C_8  and  C_9 
REMARK    8  A    between atoms: C_8  and  C_14 
REMARK    9  A    between atoms: C_9  and  C_11 
REMARK   10  A    between atoms: C_10  and  C_12 
REMARK   11  A    between atoms: C_10  and  C_13 
REMARK   12  A    between atoms: C_13  and  C_17 
REMARK   13  A    between atoms: C_21  and  C_23 
REMARK   14  A    between atoms: C_22  and  C_24 
ROOT
HETATM    1  O   LIG     1     -22.545 -13.881 -12.043  1.00  0.00    -0.271 OA
HETATM    2  N   LIG     1     -22.121 -16.067 -12.699  1.00  0.00    -0.345 N 
HETATM    3  C   LIG     1     -21.942 -14.943 -11.905  1.00  0.00     0.252 C 
HETATM    4  H   LIG     1     -21.563 -16.898 -12.519  1.00  0.00     0.163 HD
ENDROOT
BRANCH   2   5
HETATM    5  C   LIG     1     -23.055 -16.119 -13.800  1.00  0.00     0.188 C 
BRANCH   5   6
HETATM    6  C   LIG     1     -22.394 -15.674 -15.114  1.00  0.00     0.074 C 
BRANCH   6   7
HETATM    7  C   LIG     1     -23.130 -14.579 -15.852  1.00  0.00    -0.056 A 
HETATM    8  C   LIG     1     -23.025 -14.481 -17.240  1.00  0.00     0.007 A 
HETATM    9  C   LIG     1     -23.704 -13.470 -17.921  1.00  0.00     0.001 A 
HETATM   10  C   LIG     1     -24.486 -12.557 -17.214  1.00  0.00     0.000 A 
HETATM   11  C   LIG     1     -24.591 -12.655 -15.827  1.00  0.00     0.001 A 
HETATM   12  C   LIG     1     -23.913 -13.666 -15.146  1.00  0.00     0.007 A 
ENDBRANCH   6   7
ENDBRANCH   5   6
BRANCH   5  13
HETATM   13  C   LIG     1     -23.723 -17.482 -13.931  1.00  0.00     0.282 C 
HETATM   14  O   LIG     1     -24.813 -17.735 -13.429  1.00  0.00    -0.263 OA
BRANCH  13  15
HETATM   15  O   LIG     1     -22.962 -18.361 -14.643  1.00  0.00    -0.316 OA
BRANCH  15  16
HETATM   16  C   LIG     1     -23.679 -19.405 -15.310  1.00  0.00     0.205 C 
BRANCH  16  17
HETATM   17  C   LIG     1     -23.059 -20.715 -14.955  1.00  0.00    -0.011 C 
HETATM   18  C   LIG     1     -21.758 -20.880 -14.696  1.00  0.00     0.009 C 
ENDBRANCH  16  17
ENDBRANCH  15  16
ENDBRANCH  13  15
ENDBRANCH   5  13
ENDBRANCH   2   5
BRANCH   3  19
HETATM   19  C   LIG     1     -20.872 -15.155 -10.837  1.00  0.00     0.318 C 
BRANCH  19  20
HETATM   20  N   LIG     1     -21.128 -14.178  -9.778  1.00  0.00     0.092 N 
HETATM   21  H   LIG     1     -20.813 -14.553  -8.884  1.00  0.00     0.313 HD
HETATM   22  H   LIG     1     -20.571 -13.341  -9.945  1.00  0.00     0.313 HD
ENDBRANCH  19  20
BRANCH  19  23
HETATM   23  C   LIG     1     -20.967 -16.573 -10.272  1.00  0.00     0.156 C 
BRANCH  23  24
HETATM   24  C   LIG     1     -20.416 -16.634  -8.868  1.00  0.00     0.261 C 
HETATM   25  O   LIG     1     -19.233 -16.476  -8.593  1.00  0.00    -0.265 OA
BRANCH  24  26
HETATM   26  O   LIG     1     -21.426 -16.854  -7.979  1.00  0.00    -0.318 OA
BRANCH  26  27
HETATM   27  C   LIG     1     -22.665 -17.288  -8.547  1.00  0.00     0.205 C 
BRANCH  27  28
HETATM   28  C   LIG     1     -23.786 -16.624  -7.820  1.00  0.00    -0.011 C 
HETATM   29  C   LIG     1     -24.324 -17.092  -6.688  1.00  0.00     0.009 C 
ENDBRANCH  27  28
ENDBRANCH  26  27
ENDBRANCH  24  26
ENDBRANCH  23  24
ENDBRANCH  19  23
ENDBRANCH   3  19
TORSDOF 14
ENDMDL
MODEL 9
REMARK VINA RESULT:      -7.8      3.412      5.381
REMARK  14 active torsions:
REMARK  status: ('A' for Active; 'I' for Inactive)
REMARK    1  A    between atoms: O_1  and  C_14 
REMARK    2  A    between atoms: O_1  and  C_21 
REMARK    3  A    between atoms: O_4  and  C_17 
REMARK    4  A    between atoms: O_4  and  C_22 
REMARK    5  A    between atoms: N_6  and  C_8 
REMARK       I    between atoms: N_6  and  C_12 
REMARK    6  A    between atoms: N_7  and  C_10 
REMARK    7  A    between atoms: C_8  and  C_9 
REMARK    8  A    between atoms: C_8  and  C_14 
REMARK    9  A    between atoms: C_9  and  C_11 
REMARK   10  A    between atoms: C_10  and  C_12 
REMARK   11  A    between atoms: C_10  and  C_13 
REMARK   12  A    between atoms: C_13  and  C_17 
REMARK   13  A    between atoms: C_21  and  C_23 
REMARK   14  A    between atoms: C_22  and  C_24 
ROOT
HETATM    1  O   LIG     1     -23.130 -13.725 -13.275  1.00  0.00    -0.271 OA
HETATM    2  N   LIG     1     -22.422 -15.726 -12.334  1.00  0.00    -0.345 N 
HETATM    3  C   LIG     1     -22.903 -14.930 -13.364  1.00  0.00     0.252 C 
HETATM    4  H   LIG     1     -22.280 -16.719 -12.498  1.00  0.00     0.163 HD
ENDROOT
BRANCH   2   5
HETATM    5  C   LIG     1     -22.125 -15.220 -11.014  1.00  0.00     0.188 C 
BRANCH   5   6
HETATM    6  C   LIG     1     -21.621 -16.337 -10.088  1.00  0.00     0.074 C 
BRANCH   6   7
HETATM    7  C   LIG     1     -22.490 -16.594  -8.878  1.00  0.00    -0.056 A 
HETATM    8  C   LIG     1     -23.824 -16.188  -8.877  1.00  0.00     0.007 A 
HETATM    9  C   LIG     1     -24.625 -16.424  -7.760  1.00  0.00     0.001 A 
HETATM   10  C   LIG     1     -24.091 -17.067  -6.643  1.00  0.00     0.000 A 
HETATM   11  C   LIG     1     -22.757 -17.474  -6.644  1.00  0.00     0.001 A 
HETATM   12  C   LIG     1     -21.957 -17.238  -7.761  1.00  0.00     0.007 A 
ENDBRANCH   6   7
ENDBRANCH   5   6
BRANCH   5  13
HETATM   13  C   LIG     1     -21.168 -14.034 -11.049  1.00  0.00     0.282 C 
HETATM   14  O   LIG     1     -20.012 -14.129 -11.446  1.00  0.00    -0.263 OA
BRANCH  13  15
HETATM   15  O   LIG     1     -21.746 -12.894 -10.577  1.00  0.00    -0.316 OA
BRANCH  15  16
HETATM   16  C   LIG     1     -22.279 -12.970  -9.251  1.00  0.00     0.205 C 
BRANCH  16  17
HETATM   17  C   LIG     1     -21.146 -13.058  -8.284  1.00  0.00    -0.011 C 
HETATM   18  C   LIG     1     -21.237 -13.619  -7.074  1.00  0.00     0.009 C 
ENDBRANCH  16  17
ENDBRANCH  15  16
ENDBRANCH  13  15
ENDBRANCH   5  13
ENDBRANCH   2   5
BRANCH   3  19
HETATM   19  C   LIG     1     -23.159 -15.728 -14.640  1.00  0.00     0.318 C 
BRANCH  19  20
HETATM   20  N   LIG     1     -22.125 -15.340 -15.600  1.00  0.00     0.092 N 
HETATM   21  H   LIG     1     -21.265 -15.114 -15.103  1.00  0.00     0.313 HD
HETATM   22  H   LIG     1     -21.905 -16.133 -16.201  1.00  0.00     0.313 HD
ENDBRANCH  19  20
BRANCH  19  23
HETATM   23  C   LIG     1     -23.065 -17.227 -14.350  1.00  0.00     0.156 C 
BRANCH  23  24
HETATM   24  C   LIG     1     -24.402 -17.900 -14.542  1.00  0.00     0.261 C 
HETATM   25  O   LIG     1     -25.429 -17.303 -14.840  1.00  0.00    -0.265 OA
BRANCH  24  26
HETATM   26  O   LIG     1     -24.277 -19.246 -14.367  1.00  0.00    -0.318 OA
BRANCH  26  27
HETATM   27  C   LIG     1     -24.471 -20.042 -15.540  1.00  0.00     0.205 C 
BRANCH  27  28
HETATM   28  C   LIG     1     -24.413 -21.483 -15.158  1.00  0.00    -0.011 C 
HETATM   29  C   LIG     1     -23.287 -22.203 -15.122  1.00  0.00     0.009 C 
ENDBRANCH  27  28
ENDBRANCH  26  27
ENDBRANCH  24  26
ENDBRANCH  23  24
ENDBRANCH  19  23
ENDBRANCH   3  19
TORSDOF 14
ENDMDL
