MODEL 1
REMARK VINA RESULT:      -9.1      0.000      0.000
REMARK  1 active torsions:
REMARK  status: ('A' for Active; 'I' for Inactive)
REMARK    1  A    between atoms: O_1  and  C_10 
ROOT
HETATM    1  O   LIG     1     -19.130 -21.884 -10.545  1.00  0.00    -0.293 OA
HETATM    2  C   LIG     1     -21.424 -15.086 -13.169  1.00  0.00     0.001 C 
HETATM    3  C   LIG     1     -21.441 -13.915 -12.168  1.00  0.00    -0.014 C 
HETATM    4  C   LIG     1     -20.283 -16.073 -12.903  1.00  0.00    -0.004 C 
HETATM    5  C   LIG     1     -20.449 -16.658 -11.465  1.00  0.00     0.002 C 
HETATM    6  C   LIG     1     -19.344 -17.725 -11.107  1.00  0.00    -0.016 C 
HETATM    7  C   LIG     1     -21.678 -14.491 -10.766  1.00  0.00     0.012 C 
HETATM    8  C   LIG     1     -20.613 -15.539 -10.399  1.00  0.00     0.007 C 
HETATM    9  C   LIG     1     -22.622 -13.110 -12.743  1.00  0.00     0.126 C 
HETATM   10  C   LIG     1     -21.509 -14.395 -14.527  1.00  0.00     0.008 C 
HETATM   11  C   LIG     1     -20.273 -17.208 -13.935  1.00  0.00     0.010 C 
HETATM   12  C   LIG     1     -22.410 -13.173 -14.269  1.00  0.00     0.033 C 
HETATM   13  C   LIG     1     -19.235 -18.753 -12.241  1.00  0.00    -0.068 C 
HETATM   14  C   LIG     1     -19.159 -18.205 -13.648  1.00  0.00     0.035 C 
HETATM   15  C   LIG     1     -20.154 -13.051 -12.162  1.00  0.00     0.018 C 
HETATM   16  C   LIG     1     -19.758 -18.434  -9.785  1.00  0.00     0.022 C 
HETATM   17  C   LIG     1     -17.955 -17.075 -10.912  1.00  0.00     0.020 C 
HETATM   18  C   LIG     1     -18.997 -19.724  -9.520  1.00  0.00     0.084 C 
HETATM   19  C   LIG     1     -19.183 -20.081 -12.050  1.00  0.00     0.053 C 
HETATM   20  C   LIG     1     -19.133 -20.663 -10.688  1.00  0.00     0.149 C 
ENDROOT
BRANCH   9  21
HETATM   21  O   LIG     1     -22.663 -11.776 -12.274  1.00  0.00    -0.395 OA
HETATM   22  H   LIG     1     -22.799 -11.181 -13.030  1.00  0.00     0.210 HD
ENDBRANCH   9  21
TORSDOF 1
ENDMDL
