MODEL 1
REMARK VINA RESULT:      -6.5      0.000      0.000
REMARK  6 active torsions:
REMARK  status: ('A' for Active; 'I' for Inactive)
REMARK    1  A    between atoms: C_5  and  O_10 
REMARK    2  A    between atoms: O_10  and  P_11 
REMARK    3  A    between atoms: P_11  and  O_16 
REMARK    4  A    between atoms: P_11  and  O_13 
REMARK    5  A    between atoms: O_13  and  C_14 
REMARK    6  A    between atoms: O_16  and  C_17 
ROOT
HETATM    1 CL   LIG     1     -19.451 -17.297 -13.314  1.00  0.00    -0.079 Cl
HETATM    2 CL   LIG     1     -18.678 -21.961 -10.758  1.00  0.00    -0.080 Cl
HETATM    3 CL   LIG     1     -19.123 -20.340  -7.961  1.00  0.00    -0.060 Cl
HETATM    4  N   LIG     1     -19.452 -18.258  -9.433  1.00  0.00    -0.209 NA
HETATM    5  C   LIG     1     -19.522 -17.593 -10.608  1.00  0.00     0.197 A 
HETATM    6  C   LIG     1     -19.348 -18.190 -11.848  1.00  0.00     0.100 A 
HETATM    7  C   LIG     1     -19.085 -19.554 -11.882  1.00  0.00     0.029 A 
HETATM    8  C   LIG     1     -19.004 -20.272 -10.695  1.00  0.00     0.087 A 
HETATM    9  C   LIG     1     -19.193 -19.584  -9.507  1.00  0.00     0.151 A 
ENDROOT
BRANCH   5  10
HETATM   10  O   LIG     1     -19.784 -16.251 -10.522  1.00  0.00    -0.250 OA
BRANCH  10  11
HETATM   11  P   LIG     1     -21.246 -15.561 -10.407  1.00  0.00     0.337 P 
HETATM   12  S   LIG     1     -22.439 -15.758 -11.938  1.00  0.00    -0.007 SA
BRANCH  11  13
HETATM   13  O   LIG     1     -21.775 -16.123  -8.974  1.00  0.00    -0.295 OA
BRANCH  13  14
HETATM   14  C   LIG     1     -22.949 -16.913  -8.916  1.00  0.00     0.152 C 
HETATM   15  C   LIG     1     -24.084 -16.071  -8.375  1.00  0.00     0.035 C 
ENDBRANCH  13  14
ENDBRANCH  11  13
BRANCH  11  16
HETATM   16  O   LIG     1     -20.843 -14.035 -10.012  1.00  0.00    -0.295 OA
BRANCH  16  17
HETATM   17  C   LIG     1     -21.553 -13.359  -8.989  1.00  0.00     0.152 C 
HETATM   18  C   LIG     1     -22.791 -12.722  -9.585  1.00  0.00     0.035 C 
ENDBRANCH  16  17
ENDBRANCH  11  16
ENDBRANCH  10  11
ENDBRANCH   5  10
TORSDOF 6
ENDMDL
