MODEL 1
REMARK VINA RESULT:     -10.2      0.000      0.000
REMARK  6 active torsions:
REMARK  status: ('A' for Active; 'I' for Inactive)
REMARK    1  A    between atoms: S_2  and  N_9 
REMARK    2  A    between atoms: S_2  and  C_15 
REMARK    3  A    between atoms: O_6  and  C_19 
REMARK    4  A    between atoms: N_10  and  C_18 
REMARK       I    between atoms: N_10  and  C_21 
REMARK    5  A    between atoms: C_21  and  C_22 
REMARK    6  A    between atoms: C_23  and  C_26 
ROOT
HETATM    1  C   LIG     1     -20.379 -18.150  -8.917  1.00  0.00     0.077 A 
HETATM    2  C   LIG     1     -20.783 -17.137  -9.771  1.00  0.00     0.057 A 
HETATM    3  C   LIG     1     -21.142 -18.515  -7.819  1.00  0.00     0.028 A 
HETATM    4  C   LIG     1     -21.982 -16.469  -9.521  1.00  0.00     0.070 A 
HETATM    5  C   LIG     1     -22.761 -16.824  -8.420  1.00  0.00     0.095 A 
HETATM    6  C   LIG     1     -22.341 -17.847  -7.568  1.00  0.00     0.040 A 
ENDROOT
BRANCH   4   7
HETATM    7  N   LIG     1     -22.389 -15.447 -10.381  1.00  0.00    -0.319 N 
HETATM    8  C   LIG     1     -22.037 -14.083 -10.349  1.00  0.00     0.280 C 
HETATM    9  O   LIG     1     -21.283 -13.589  -9.513  1.00  0.00    -0.265 OA
HETATM   10  H   LIG     1     -23.023 -15.735 -11.123  1.00  0.00     0.169 HD
BRANCH   8  11
HETATM   11  C   LIG     1     -22.675 -13.249 -11.382  1.00  0.00     0.144 A 
HETATM   12  O   LIG     1     -22.619 -13.720 -12.632  1.00  0.00    -0.304 OA
HETATM   13  C   LIG     1     -23.264 -12.788 -13.380  1.00  0.00     0.088 A 
HETATM   14  C   LIG     1     -23.712 -11.756 -12.589  1.00  0.00     0.041 A 
HETATM   15  C   LIG     1     -23.314 -12.075 -11.268  1.00  0.00     0.046 A 
BRANCH  13  16
HETATM   16  C   LIG     1     -23.339 -13.073 -14.786  1.00  0.00     0.019 A 
HETATM   17  C   LIG     1     -22.207 -13.405 -15.542  1.00  0.00     0.047 A 
HETATM   18 CL   LIG     1     -20.635 -13.493 -14.829  1.00  0.00    -0.083 Cl
HETATM   19  C   LIG     1     -22.325 -13.674 -16.906  1.00  0.00     0.025 A 
HETATM   20  C   LIG     1     -23.574 -13.613 -17.524  1.00  0.00     0.002 A 
HETATM   21  C   LIG     1     -24.705 -13.283 -16.778  1.00  0.00     0.001 A 
HETATM   22  C   LIG     1     -24.589 -13.015 -15.414  1.00  0.00     0.016 A 
ENDBRANCH  13  16
ENDBRANCH   8  11
ENDBRANCH   4   7
BRANCH   5  23
HETATM   23  O   LIG     1     -23.935 -16.184  -8.157  1.00  0.00    -0.354 OA
HETATM   24  C   LIG     1     -24.765 -16.744  -7.141  1.00  0.00     0.210 C 
ENDBRANCH   5  23
BRANCH   1  25
HETATM   25  S   LIG     1     -18.862 -18.995  -9.233  1.00  0.00     0.243 S 
HETATM   26  O   LIG     1     -17.880 -18.007  -9.627  1.00  0.00    -0.206 OA
HETATM   27  O   LIG     1     -18.614 -19.894  -8.126  1.00  0.00    -0.206 OA
BRANCH  25  28
HETATM   28  N   LIG     1     -19.312 -19.915 -10.606  1.00  0.00    -0.202 NA
HETATM   29  C   LIG     1     -18.939 -19.325 -11.924  1.00  0.00     0.134 C 
HETATM   30  C   LIG     1     -19.622 -20.122 -13.027  1.00  0.00     0.183 C 
HETATM   31  O   LIG     1     -19.242 -21.498 -12.953  1.00  0.00    -0.389 OA
HETATM   32  C   LIG     1     -19.645 -22.076 -11.710  1.00  0.00     0.183 C 
HETATM   33  C   LIG     1     -18.964 -21.365 -10.550  1.00  0.00     0.134 C 
ENDBRANCH  25  28
ENDBRANCH   1  25
TORSDOF 6
ENDMDL
MODEL 2
REMARK VINA RESULT:     -10.0      4.403      8.075
REMARK  6 active torsions:
REMARK  status: ('A' for Active; 'I' for Inactive)
REMARK    1  A    between atoms: S_2  and  N_9 
REMARK    2  A    between atoms: S_2  and  C_15 
REMARK    3  A    between atoms: O_6  and  C_19 
REMARK    4  A    between atoms: N_10  and  C_18 
REMARK       I    between atoms: N_10  and  C_21 
REMARK    5  A    between atoms: C_21  and  C_22 
REMARK    6  A    between atoms: C_23  and  C_26 
ROOT
HETATM    1  C   LIG     1     -22.498 -13.746 -12.568  1.00  0.00     0.077 A 
HETATM    2  C   LIG     1     -22.353 -15.098 -12.833  1.00  0.00     0.057 A 
HETATM    3  C   LIG     1     -23.005 -12.874 -13.518  1.00  0.00     0.028 A 
HETATM    4  C   LIG     1     -22.726 -15.593 -14.083  1.00  0.00     0.070 A 
HETATM    5  C   LIG     1     -23.238 -14.728 -15.050  1.00  0.00     0.095 A 
HETATM    6  C   LIG     1     -23.377 -13.369 -14.769  1.00  0.00     0.040 A 
ENDROOT
BRANCH   4   7
HETATM    7  N   LIG     1     -22.580 -16.955 -14.352  1.00  0.00    -0.319 N 
HETATM    8  C   LIG     1     -23.552 -17.972 -14.270  1.00  0.00     0.280 C 
HETATM    9  O   LIG     1     -24.718 -17.781 -13.932  1.00  0.00    -0.265 OA
HETATM   10  H   LIG     1     -21.648 -17.241 -14.643  1.00  0.00     0.169 HD
BRANCH   8  11
HETATM   11  C   LIG     1     -23.065 -19.327 -14.581  1.00  0.00     0.144 A 
HETATM   12  O   LIG     1     -23.988 -20.198 -15.002  1.00  0.00    -0.304 OA
HETATM   13  C   LIG     1     -23.301 -21.350 -15.218  1.00  0.00     0.088 A 
HETATM   14  C   LIG     1     -21.967 -21.180 -14.931  1.00  0.00     0.041 A 
HETATM   15  C   LIG     1     -21.825 -19.836 -14.510  1.00  0.00     0.046 A 
BRANCH  13  16
HETATM   16  C   LIG     1     -24.088 -22.457 -15.685  1.00  0.00     0.019 A 
HETATM   17  C   LIG     1     -25.037 -22.321 -16.707  1.00  0.00     0.047 A 
HETATM   18 CL   LIG     1     -25.327 -20.800 -17.478  1.00  0.00    -0.083 Cl
HETATM   19  C   LIG     1     -25.781 -23.422 -17.130  1.00  0.00     0.025 A 
HETATM   20  C   LIG     1     -25.581 -24.668 -16.536  1.00  0.00     0.002 A 
HETATM   21  C   LIG     1     -24.639 -24.813 -15.518  1.00  0.00     0.001 A 
HETATM   22  C   LIG     1     -23.894 -23.712 -15.094  1.00  0.00     0.016 A 
ENDBRANCH  13  16
ENDBRANCH   8  11
ENDBRANCH   4   7
BRANCH   5  23
HETATM   23  O   LIG     1     -23.607 -15.191 -16.278  1.00  0.00    -0.354 OA
HETATM   24  C   LIG     1     -23.535 -14.271 -17.366  1.00  0.00     0.210 C 
ENDBRANCH   5  23
BRANCH   1  25
HETATM   25  S   LIG     1     -22.027 -13.120 -10.986  1.00  0.00     0.243 S 
HETATM   26  O   LIG     1     -20.636 -12.722 -11.064  1.00  0.00    -0.206 OA
HETATM   27  O   LIG     1     -23.046 -12.187 -10.554  1.00  0.00    -0.206 OA
BRANCH  25  28
HETATM   28  N   LIG     1     -22.148 -14.548 -10.050  1.00  0.00    -0.202 NA
HETATM   29  C   LIG     1     -20.853 -15.117  -9.575  1.00  0.00     0.134 C 
HETATM   30  C   LIG     1     -21.113 -16.497  -8.986  1.00  0.00     0.183 C 
HETATM   31  O   LIG     1     -22.060 -16.411  -7.919  1.00  0.00    -0.389 OA
HETATM   32  C   LIG     1     -23.315 -15.915  -8.385  1.00  0.00     0.183 C 
HETATM   33  C   LIG     1     -23.154 -14.510  -8.947  1.00  0.00     0.134 C 
ENDBRANCH  25  28
ENDBRANCH   1  25
TORSDOF 6
ENDMDL
MODEL 3
REMARK VINA RESULT:      -9.4      3.468      7.170
REMARK  6 active torsions:
REMARK  status: ('A' for Active; 'I' for Inactive)
REMARK    1  A    between atoms: S_2  and  N_9 
REMARK    2  A    between atoms: S_2  and  C_15 
REMARK    3  A    between atoms: O_6  and  C_19 
REMARK    4  A    between atoms: N_10  and  C_18 
REMARK       I    between atoms: N_10  and  C_21 
REMARK    5  A    between atoms: C_21  and  C_22 
REMARK    6  A    between atoms: C_23  and  C_26 
ROOT
HETATM    1  C   LIG     1     -21.232 -13.884 -10.682  1.00  0.00     0.077 A 
HETATM    2  C   LIG     1     -21.270 -15.184 -11.159  1.00  0.00     0.057 A 
HETATM    3  C   LIG     1     -20.495 -12.901 -11.324  1.00  0.00     0.028 A 
HETATM    4  C   LIG     1     -20.553 -15.511 -12.310  1.00  0.00     0.070 A 
HETATM    5  C   LIG     1     -19.808 -14.533 -12.968  1.00  0.00     0.095 A 
HETATM    6  C   LIG     1     -19.778 -13.228 -12.475  1.00  0.00     0.040 A 
ENDROOT
BRANCH   4   7
HETATM    7  N   LIG     1     -20.592 -16.821 -12.792  1.00  0.00    -0.319 N 
HETATM    8  C   LIG     1     -19.619 -17.831 -12.659  1.00  0.00     0.280 C 
HETATM    9  O   LIG     1     -18.551 -17.682 -12.070  1.00  0.00    -0.265 OA
HETATM   10  H   LIG     1     -21.435 -17.067 -13.305  1.00  0.00     0.169 HD
BRANCH   8  11
HETATM   11  C   LIG     1     -19.946 -19.104 -13.324  1.00  0.00     0.144 A 
HETATM   12  O   LIG     1     -21.200 -19.225 -13.772  1.00  0.00    -0.304 OA
HETATM   13  C   LIG     1     -21.248 -20.462 -14.333  1.00  0.00     0.088 A 
HETATM   14  C   LIG     1     -20.028 -21.090 -14.226  1.00  0.00     0.041 A 
HETATM   15  C   LIG     1     -19.176 -20.179 -13.556  1.00  0.00     0.046 A 
BRANCH  13  16
HETATM   16  C   LIG     1     -22.515 -20.833 -14.896  1.00  0.00     0.019 A 
HETATM   17  C   LIG     1     -23.432 -19.883 -15.364  1.00  0.00     0.047 A 
HETATM   18 CL   LIG     1     -23.097 -18.188 -15.292  1.00  0.00    -0.083 Cl
HETATM   19  C   LIG     1     -24.653 -20.287 -15.904  1.00  0.00     0.025 A 
HETATM   20  C   LIG     1     -24.966 -21.644 -15.982  1.00  0.00     0.002 A 
HETATM   21  C   LIG     1     -24.059 -22.597 -15.519  1.00  0.00     0.001 A 
HETATM   22  C   LIG     1     -22.838 -22.193 -14.978  1.00  0.00     0.016 A 
ENDBRANCH  13  16
ENDBRANCH   8  11
ENDBRANCH   4   7
BRANCH   5  23
HETATM   23  O   LIG     1     -19.099 -14.831 -14.094  1.00  0.00    -0.354 OA
HETATM   24  C   LIG     1     -17.677 -14.820 -13.987  1.00  0.00     0.210 C 
ENDBRANCH   5  23
BRANCH   1  25
HETATM   25  S   LIG     1     -22.139 -13.470  -9.225  1.00  0.00     0.243 S 
HETATM   26  O   LIG     1     -21.207 -12.910  -8.268  1.00  0.00    -0.206 OA
HETATM   27  O   LIG     1     -23.322 -12.741  -9.629  1.00  0.00    -0.206 OA
BRANCH  25  28
HETATM   28  N   LIG     1     -22.601 -15.035  -8.706  1.00  0.00    -0.202 NA
HETATM   29  C   LIG     1     -21.904 -15.539  -7.487  1.00  0.00     0.134 C 
HETATM   30  C   LIG     1     -22.236 -17.014  -7.310  1.00  0.00     0.183 C 
HETATM   31  O   LIG     1     -23.649 -17.196  -7.206  1.00  0.00    -0.389 OA
HETATM   32  C   LIG     1     -24.312 -16.761  -8.394  1.00  0.00     0.183 C 
HETATM   33  C   LIG     1     -24.072 -15.275  -8.620  1.00  0.00     0.134 C 
ENDBRANCH  25  28
ENDBRANCH   1  25
TORSDOF 6
ENDMDL
MODEL 4
REMARK VINA RESULT:      -9.4      4.264      7.419
REMARK  6 active torsions:
REMARK  status: ('A' for Active; 'I' for Inactive)
REMARK    1  A    between atoms: S_2  and  N_9 
REMARK    2  A    between atoms: S_2  and  C_15 
REMARK    3  A    between atoms: O_6  and  C_19 
REMARK    4  A    between atoms: N_10  and  C_18 
REMARK       I    between atoms: N_10  and  C_21 
REMARK    5  A    between atoms: C_21  and  C_22 
REMARK    6  A    between atoms: C_23  and  C_26 
ROOT
HETATM    1  C   LIG     1     -21.793 -13.998 -11.265  1.00  0.00     0.077 A 
HETATM    2  C   LIG     1     -22.483 -15.015 -11.904  1.00  0.00     0.057 A 
HETATM    3  C   LIG     1     -20.928 -13.166 -11.958  1.00  0.00     0.028 A 
HETATM    4  C   LIG     1     -22.304 -15.206 -13.274  1.00  0.00     0.070 A 
HETATM    5  C   LIG     1     -21.438 -14.377 -13.986  1.00  0.00     0.095 A 
HETATM    6  C   LIG     1     -20.750 -13.356 -13.329  1.00  0.00     0.040 A 
ENDROOT
BRANCH   4   7
HETATM    7  N   LIG     1     -22.999 -16.231 -13.919  1.00  0.00    -0.319 N 
HETATM    8  C   LIG     1     -22.514 -17.481 -14.351  1.00  0.00     0.280 C 
HETATM    9  O   LIG     1     -21.351 -17.852 -14.208  1.00  0.00    -0.265 OA
HETATM   10  H   LIG     1     -23.983 -16.040 -14.097  1.00  0.00     0.169 HD
BRANCH   8  11
HETATM   11  C   LIG     1     -23.500 -18.329 -15.042  1.00  0.00     0.144 A 
HETATM   12  O   LIG     1     -23.389 -19.645 -14.835  1.00  0.00    -0.304 OA
HETATM   13  C   LIG     1     -24.392 -20.195 -15.567  1.00  0.00     0.088 A 
HETATM   14  C   LIG     1     -25.111 -19.218 -16.216  1.00  0.00     0.041 A 
HETATM   15  C   LIG     1     -24.509 -17.988 -15.860  1.00  0.00     0.046 A 
BRANCH  13  16
HETATM   16  C   LIG     1     -24.484 -21.627 -15.506  1.00  0.00     0.019 A 
HETATM   17  C   LIG     1     -23.409 -22.428 -15.097  1.00  0.00     0.047 A 
HETATM   18 CL   LIG     1     -21.890 -21.740 -14.637  1.00  0.00    -0.083 Cl
HETATM   19  C   LIG     1     -23.540 -23.815 -15.053  1.00  0.00     0.025 A 
HETATM   20  C   LIG     1     -24.747 -24.414 -15.417  1.00  0.00     0.002 A 
HETATM   21  C   LIG     1     -25.822 -23.624 -15.824  1.00  0.00     0.001 A 
HETATM   22  C   LIG     1     -25.691 -22.236 -15.869  1.00  0.00     0.016 A 
ENDBRANCH  13  16
ENDBRANCH   8  11
ENDBRANCH   4   7
BRANCH   5  23
HETATM   23  O   LIG     1     -21.249 -14.546 -15.325  1.00  0.00    -0.354 OA
HETATM   24  C   LIG     1     -21.768 -13.534 -16.187  1.00  0.00     0.210 C 
ENDBRANCH   5  23
BRANCH   1  25
HETATM   25  S   LIG     1     -22.018 -13.756  -9.531  1.00  0.00     0.243 S 
HETATM   26  O   LIG     1     -20.751 -13.330  -8.975  1.00  0.00    -0.206 OA
HETATM   27  O   LIG     1     -23.218 -12.969  -9.343  1.00  0.00    -0.206 OA
BRANCH  25  28
HETATM   28  N   LIG     1     -22.329 -15.368  -9.042  1.00  0.00    -0.202 NA
HETATM   29  C   LIG     1     -21.149 -16.121  -8.526  1.00  0.00     0.134 C 
HETATM   30  C   LIG     1     -21.533 -17.587  -8.377  1.00  0.00     0.183 C 
HETATM   31  O   LIG     1     -22.652 -17.720  -7.499  1.00  0.00    -0.389 OA
HETATM   32  C   LIG     1     -23.797 -17.041  -8.019  1.00  0.00     0.183 C 
HETATM   33  C   LIG     1     -23.513 -15.552  -8.152  1.00  0.00     0.134 C 
ENDBRANCH  25  28
ENDBRANCH   1  25
TORSDOF 6
ENDMDL
MODEL 5
REMARK VINA RESULT:      -9.2      4.739      7.862
REMARK  6 active torsions:
REMARK  status: ('A' for Active; 'I' for Inactive)
REMARK    1  A    between atoms: S_2  and  N_9 
REMARK    2  A    between atoms: S_2  and  C_15 
REMARK    3  A    between atoms: O_6  and  C_19 
REMARK    4  A    between atoms: N_10  and  C_18 
REMARK       I    between atoms: N_10  and  C_21 
REMARK    5  A    between atoms: C_21  and  C_22 
REMARK    6  A    between atoms: C_23  and  C_26 
ROOT
HETATM    1  C   LIG     1     -19.492 -15.353 -13.336  1.00  0.00     0.077 A 
HETATM    2  C   LIG     1     -20.539 -15.996 -13.977  1.00  0.00     0.057 A 
HETATM    3  C   LIG     1     -18.537 -16.062 -12.624  1.00  0.00     0.028 A 
HETATM    4  C   LIG     1     -20.634 -17.386 -13.904  1.00  0.00     0.070 A 
HETATM    5  C   LIG     1     -19.681 -18.113 -13.192  1.00  0.00     0.095 A 
HETATM    6  C   LIG     1     -18.633 -17.452 -12.551  1.00  0.00     0.040 A 
ENDROOT
BRANCH   4   7
HETATM    7  N   LIG     1     -21.688 -18.034 -14.550  1.00  0.00    -0.319 N 
HETATM    8  C   LIG     1     -23.072 -17.807 -14.412  1.00  0.00     0.280 C 
HETATM    9  O   LIG     1     -23.557 -16.961 -13.664  1.00  0.00    -0.265 OA
HETATM   10  H   LIG     1     -21.412 -18.765 -15.202  1.00  0.00     0.169 HD
BRANCH   8  11
HETATM   11  C   LIG     1     -23.933 -18.696 -15.210  1.00  0.00     0.144 A 
HETATM   12  O   LIG     1     -23.797 -20.005 -14.979  1.00  0.00    -0.304 OA
HETATM   13  C   LIG     1     -24.682 -20.598 -15.822  1.00  0.00     0.088 A 
HETATM   14  C   LIG     1     -25.354 -19.654 -16.562  1.00  0.00     0.041 A 
HETATM   15  C   LIG     1     -24.848 -18.398 -16.147  1.00  0.00     0.046 A 
BRANCH  13  16
HETATM   16  C   LIG     1     -24.725 -22.032 -15.760  1.00  0.00     0.019 A 
HETATM   17  C   LIG     1     -23.665 -22.790 -15.244  1.00  0.00     0.047 A 
HETATM   18 CL   LIG     1     -22.224 -22.043 -14.645  1.00  0.00    -0.083 Cl
HETATM   19  C   LIG     1     -23.748 -24.181 -15.202  1.00  0.00     0.025 A 
HETATM   20  C   LIG     1     -24.890 -24.827 -15.675  1.00  0.00     0.002 A 
HETATM   21  C   LIG     1     -25.950 -24.081 -16.189  1.00  0.00     0.001 A 
HETATM   22  C   LIG     1     -25.868 -22.689 -16.232  1.00  0.00     0.016 A 
ENDBRANCH  13  16
ENDBRANCH   8  11
ENDBRANCH   4   7
BRANCH   5  23
HETATM   23  O   LIG     1     -19.756 -19.472 -13.109  1.00  0.00    -0.354 OA
HETATM   24  C   LIG     1     -19.160 -20.085 -11.967  1.00  0.00     0.210 C 
ENDBRANCH   5  23
BRANCH   1  25
HETATM   25  S   LIG     1     -19.371 -13.594 -13.427  1.00  0.00     0.243 S 
HETATM   26  O   LIG     1     -18.097 -13.208 -12.857  1.00  0.00    -0.206 OA
HETATM   27  O   LIG     1     -19.742 -13.191 -14.766  1.00  0.00    -0.206 OA
BRANCH  25  28
HETATM   28  N   LIG     1     -20.623 -13.152 -12.346  1.00  0.00    -0.202 NA
HETATM   29  C   LIG     1     -21.983 -13.039 -12.950  1.00  0.00     0.134 C 
HETATM   30  C   LIG     1     -22.919 -12.402 -11.931  1.00  0.00     0.183 C 
HETATM   31  O   LIG     1     -22.951 -13.180 -10.733  1.00  0.00    -0.389 OA
HETATM   32  C   LIG     1     -21.658 -13.244 -10.128  1.00  0.00     0.183 C 
HETATM   33  C   LIG     1     -20.667 -13.918 -11.066  1.00  0.00     0.134 C 
ENDBRANCH  25  28
ENDBRANCH   1  25
TORSDOF 6
ENDMDL
MODEL 6
REMARK VINA RESULT:      -8.6      4.602      7.706
REMARK  6 active torsions:
REMARK  status: ('A' for Active; 'I' for Inactive)
REMARK    1  A    between atoms: S_2  and  N_9 
REMARK    2  A    between atoms: S_2  and  C_15 
REMARK    3  A    between atoms: O_6  and  C_19 
REMARK    4  A    between atoms: N_10  and  C_18 
REMARK       I    between atoms: N_10  and  C_21 
REMARK    5  A    between atoms: C_21  and  C_22 
REMARK    6  A    between atoms: C_23  and  C_26 
ROOT
HETATM    1  C   LIG     1     -21.322 -13.975 -11.977  1.00  0.00     0.077 A 
HETATM    2  C   LIG     1     -22.117 -14.846 -12.705  1.00  0.00     0.057 A 
HETATM    3  C   LIG     1     -19.944 -14.118 -11.939  1.00  0.00     0.028 A 
HETATM    4  C   LIG     1     -21.519 -15.888 -13.413  1.00  0.00     0.070 A 
HETATM    5  C   LIG     1     -20.133 -16.045 -13.385  1.00  0.00     0.095 A 
HETATM    6  C   LIG     1     -19.345 -15.160 -12.648  1.00  0.00     0.040 A 
ENDROOT
BRANCH   4   7
HETATM    7  N   LIG     1     -22.319 -16.766 -14.147  1.00  0.00    -0.319 N 
HETATM    8  C   LIG     1     -23.511 -17.405 -13.749  1.00  0.00     0.280 C 
HETATM    9  O   LIG     1     -24.028 -17.264 -12.643  1.00  0.00    -0.265 OA
HETATM   10  H   LIG     1     -21.991 -16.965 -15.089  1.00  0.00     0.169 HD
BRANCH   8  11
HETATM   11  C   LIG     1     -24.098 -18.312 -14.750  1.00  0.00     0.144 A 
HETATM   12  O   LIG     1     -23.996 -19.618 -14.487  1.00  0.00    -0.304 OA
HETATM   13  C   LIG     1     -24.600 -20.230 -15.539  1.00  0.00     0.088 A 
HETATM   14  C   LIG     1     -25.069 -19.298 -16.437  1.00  0.00     0.041 A 
HETATM   15  C   LIG     1     -24.729 -18.033 -15.901  1.00  0.00     0.046 A 
BRANCH  13  16
HETATM   16  C   LIG     1     -24.621 -21.664 -15.488  1.00  0.00     0.019 A 
HETATM   17  C   LIG     1     -23.493 -22.416 -15.132  1.00  0.00     0.047 A 
HETATM   18 CL   LIG     1     -21.991 -21.660 -14.730  1.00  0.00    -0.083 Cl
HETATM   19  C   LIG     1     -23.556 -23.808 -15.096  1.00  0.00     0.025 A 
HETATM   20  C   LIG     1     -24.747 -24.461 -15.414  1.00  0.00     0.002 A 
HETATM   21  C   LIG     1     -25.875 -23.721 -15.768  1.00  0.00     0.001 A 
HETATM   22  C   LIG     1     -25.813 -22.328 -15.805  1.00  0.00     0.016 A 
ENDBRANCH  13  16
ENDBRANCH   8  11
ENDBRANCH   4   7
BRANCH   5  23
HETATM   23  O   LIG     1     -19.528 -17.056 -14.070  1.00  0.00    -0.354 OA
HETATM   24  C   LIG     1     -19.132 -18.201 -13.318  1.00  0.00     0.210 C 
ENDBRANCH   5  23
BRANCH   1  25
HETATM   25  S   LIG     1     -22.079 -12.657 -11.081  1.00  0.00     0.243 S 
HETATM   26  O   LIG     1     -21.126 -11.570 -11.004  1.00  0.00    -0.206 OA
HETATM   27  O   LIG     1     -23.404 -12.450 -11.626  1.00  0.00    -0.206 OA
BRANCH  25  28
HETATM   28  N   LIG     1     -22.221 -13.387  -9.538  1.00  0.00    -0.202 NA
HETATM   29  C   LIG     1     -22.699 -14.800  -9.538  1.00  0.00     0.134 C 
HETATM   30  C   LIG     1     -23.009 -15.211  -8.105  1.00  0.00     0.183 C 
HETATM   31  O   LIG     1     -21.849 -15.060  -7.284  1.00  0.00    -0.389 OA
HETATM   32  C   LIG     1     -21.422 -13.697  -7.243  1.00  0.00     0.183 C 
HETATM   33  C   LIG     1     -21.042 -13.220  -8.638  1.00  0.00     0.134 C 
ENDBRANCH  25  28
ENDBRANCH   1  25
TORSDOF 6
ENDMDL
MODEL 7
REMARK VINA RESULT:      -8.3      3.651      7.874
REMARK  6 active torsions:
REMARK  status: ('A' for Active; 'I' for Inactive)
REMARK    1  A    between atoms: S_2  and  N_9 
REMARK    2  A    between atoms: S_2  and  C_15 
REMARK    3  A    between atoms: O_6  and  C_19 
REMARK    4  A    between atoms: N_10  and  C_18 
REMARK       I    between atoms: N_10  and  C_21 
REMARK    5  A    between atoms: C_21  and  C_22 
REMARK    6  A    between atoms: C_23  and  C_26 
ROOT
HETATM    1  C   LIG     1     -23.405 -13.685 -14.636  1.00  0.00     0.077 A 
HETATM    2  C   LIG     1     -22.666 -14.607 -13.914  1.00  0.00     0.057 A 
HETATM    3  C   LIG     1     -23.752 -12.456 -14.097  1.00  0.00     0.028 A 
HETATM    4  C   LIG     1     -22.262 -14.292 -12.616  1.00  0.00     0.070 A 
HETATM    5  C   LIG     1     -22.602 -13.060 -12.059  1.00  0.00     0.095 A 
HETATM    6  C   LIG     1     -23.348 -12.141 -12.799  1.00  0.00     0.040 A 
ENDROOT
BRANCH   4   7
HETATM    7  N   LIG     1     -21.517 -15.221 -11.887  1.00  0.00    -0.319 N 
HETATM    8  C   LIG     1     -20.130 -15.230 -11.639  1.00  0.00     0.280 C 
HETATM    9  O   LIG     1     -19.353 -14.374 -12.056  1.00  0.00    -0.265 OA
HETATM   10  H   LIG     1     -22.053 -15.988 -11.487  1.00  0.00     0.169 HD
BRANCH   8  11
HETATM   11  C   LIG     1     -19.641 -16.382 -10.862  1.00  0.00     0.144 A 
HETATM   12  O   LIG     1     -19.711 -17.570 -11.470  1.00  0.00    -0.304 OA
HETATM   13  C   LIG     1     -19.211 -18.451 -10.565  1.00  0.00     0.088 A 
HETATM   14  C   LIG     1     -18.839 -17.801  -9.411  1.00  0.00     0.041 A 
HETATM   15  C   LIG     1     -19.130 -16.432  -9.622  1.00  0.00     0.046 A 
BRANCH  13  16
HETATM   16  C   LIG     1     -19.179 -19.821 -10.992  1.00  0.00     0.019 A 
HETATM   17  C   LIG     1     -18.979 -20.880 -10.096  1.00  0.00     0.047 A 
HETATM   18 CL   LIG     1     -18.755 -20.603  -8.403  1.00  0.00    -0.083 Cl
HETATM   19  C   LIG     1     -18.954 -22.197 -10.553  1.00  0.00     0.025 A 
HETATM   20  C   LIG     1     -19.129 -22.467 -11.911  1.00  0.00     0.002 A 
HETATM   21  C   LIG     1     -19.329 -21.420 -12.810  1.00  0.00     0.001 A 
HETATM   22  C   LIG     1     -19.354 -20.102 -12.353  1.00  0.00     0.016 A 
ENDBRANCH  13  16
ENDBRANCH   8  11
ENDBRANCH   4   7
BRANCH   5  23
HETATM   23  O   LIG     1     -22.218 -12.733 -10.793  1.00  0.00    -0.354 OA
HETATM   24  C   LIG     1     -23.252 -12.432  -9.859  1.00  0.00     0.210 C 
ENDBRANCH   5  23
BRANCH   1  25
HETATM   25  S   LIG     1     -23.917 -14.082 -16.278  1.00  0.00     0.243 S 
HETATM   26  O   LIG     1     -25.129 -13.339 -16.556  1.00  0.00    -0.206 OA
HETATM   27  O   LIG     1     -22.762 -13.975 -17.144  1.00  0.00    -0.206 OA
BRANCH  25  28
HETATM   28  N   LIG     1     -24.309 -15.737 -16.077  1.00  0.00    -0.202 NA
HETATM   29  C   LIG     1     -23.193 -16.609 -15.607  1.00  0.00     0.134 C 
HETATM   30  C   LIG     1     -23.628 -18.063 -15.722  1.00  0.00     0.183 C 
HETATM   31  O   LIG     1     -24.814 -18.289 -14.958  1.00  0.00    -0.389 OA
HETATM   32  C   LIG     1     -25.896 -17.491 -15.442  1.00  0.00     0.183 C 
HETATM   33  C   LIG     1     -25.562 -16.012 -15.314  1.00  0.00     0.134 C 
ENDBRANCH  25  28
ENDBRANCH   1  25
TORSDOF 6
ENDMDL
MODEL 8
REMARK VINA RESULT:      -8.1      4.800      8.262
REMARK  6 active torsions:
REMARK  status: ('A' for Active; 'I' for Inactive)
REMARK    1  A    between atoms: S_2  and  N_9 
REMARK    2  A    between atoms: S_2  and  C_15 
REMARK    3  A    between atoms: O_6  and  C_19 
REMARK    4  A    between atoms: N_10  and  C_18 
REMARK       I    between atoms: N_10  and  C_21 
REMARK    5  A    between atoms: C_21  and  C_22 
REMARK    6  A    between atoms: C_23  and  C_26 
ROOT
HETATM    1  C   LIG     1     -22.178 -13.995 -14.706  1.00  0.00     0.077 A 
HETATM    2  C   LIG     1     -22.194 -13.976 -13.321  1.00  0.00     0.057 A 
HETATM    3  C   LIG     1     -21.013 -13.756 -15.418  1.00  0.00     0.028 A 
HETATM    4  C   LIG     1     -21.012 -13.712 -12.628  1.00  0.00     0.070 A 
HETATM    5  C   LIG     1     -19.831 -13.471 -13.330  1.00  0.00     0.095 A 
HETATM    6  C   LIG     1     -19.832 -13.492 -14.725  1.00  0.00     0.040 A 
ENDROOT
BRANCH   4   7
HETATM    7  N   LIG     1     -21.026 -13.694 -11.232  1.00  0.00    -0.319 N 
HETATM    8  C   LIG     1     -21.394 -12.639 -10.374  1.00  0.00     0.280 C 
HETATM    9  O   LIG     1     -21.771 -11.536 -10.765  1.00  0.00    -0.265 OA
HETATM   10  H   LIG     1     -20.731 -14.559 -10.785  1.00  0.00     0.169 HD
BRANCH   8  11
HETATM   11  C   LIG     1     -21.259 -12.927  -8.935  1.00  0.00     0.144 A 
HETATM   12  O   LIG     1     -21.322 -11.871  -8.118  1.00  0.00    -0.304 OA
HETATM   13  C   LIG     1     -21.173 -12.390  -6.872  1.00  0.00     0.088 A 
HETATM   14  C   LIG     1     -21.021 -13.756  -6.931  1.00  0.00     0.041 A 
HETATM   15  C   LIG     1     -21.079 -14.097  -8.304  1.00  0.00     0.046 A 
BRANCH  13  16
HETATM   16  C   LIG     1     -21.207 -11.436  -5.800  1.00  0.00     0.019 A 
HETATM   17  C   LIG     1     -20.056 -10.776  -5.350  1.00  0.00     0.047 A 
HETATM   18 CL   LIG     1     -18.507 -11.071  -6.059  1.00  0.00    -0.083 Cl
HETATM   19  C   LIG     1     -20.134  -9.856  -4.305  1.00  0.00     0.025 A 
HETATM   20  C   LIG     1     -21.363  -9.587  -3.701  1.00  0.00     0.002 A 
HETATM   21  C   LIG     1     -22.514 -10.239  -4.143  1.00  0.00     0.001 A 
HETATM   22  C   LIG     1     -22.437 -11.159  -5.189  1.00  0.00     0.016 A 
ENDBRANCH  13  16
ENDBRANCH   8  11
ENDBRANCH   4   7
BRANCH   5  23
HETATM   23  O   LIG     1     -18.666 -13.210 -12.672  1.00  0.00    -0.354 OA
HETATM   24  C   LIG     1     -17.486 -13.837 -13.170  1.00  0.00     0.210 C 
ENDBRANCH   5  23
BRANCH   1  25
HETATM   25  S   LIG     1     -23.673 -14.328 -15.583  1.00  0.00     0.243 S 
HETATM   26  O   LIG     1     -24.700 -13.455 -15.055  1.00  0.00    -0.206 OA
HETATM   27  O   LIG     1     -23.365 -14.347 -16.997  1.00  0.00    -0.206 OA
BRANCH  25  28
HETATM   28  N   LIG     1     -23.977 -15.930 -15.059  1.00  0.00    -0.202 NA
HETATM   29  C   LIG     1     -25.314 -16.482 -15.422  1.00  0.00     0.134 C 
HETATM   30  C   LIG     1     -25.520 -17.794 -14.678  1.00  0.00     0.183 C 
HETATM   31  O   LIG     1     -24.478 -18.716 -15.001  1.00  0.00    -0.389 OA
HETATM   32  C   LIG     1     -23.202 -18.209 -14.605  1.00  0.00     0.183 C 
HETATM   33  C   LIG     1     -22.894 -16.916 -15.346  1.00  0.00     0.134 C 
ENDBRANCH  25  28
ENDBRANCH   1  25
TORSDOF 6
ENDMDL
MODEL 9
REMARK VINA RESULT:      -7.7      4.070      7.989
REMARK  6 active torsions:
REMARK  status: ('A' for Active; 'I' for Inactive)
REMARK    1  A    between atoms: S_2  and  N_9 
REMARK    2  A    between atoms: S_2  and  C_15 
REMARK    3  A    between atoms: O_6  and  C_19 
REMARK    4  A    between atoms: N_10  and  C_18 
REMARK       I    between atoms: N_10  and  C_21 
REMARK    5  A    between atoms: C_21  and  C_22 
REMARK    6  A    between atoms: C_23  and  C_26 
ROOT
HETATM    1  C   LIG     1     -22.556 -13.625 -15.296  1.00  0.00     0.077 A 
HETATM    2  C   LIG     1     -22.581 -13.749 -13.916  1.00  0.00     0.057 A 
HETATM    3  C   LIG     1     -21.377 -13.361 -15.975  1.00  0.00     0.028 A 
HETATM    4  C   LIG     1     -21.396 -13.605 -13.195  1.00  0.00     0.070 A 
HETATM    5  C   LIG     1     -20.201 -13.340 -13.864  1.00  0.00     0.095 A 
HETATM    6  C   LIG     1     -20.191 -13.217 -15.254  1.00  0.00     0.040 A 
ENDROOT
BRANCH   4   7
HETATM    7  N   LIG     1     -21.420 -13.730 -11.805  1.00  0.00    -0.319 N 
HETATM    8  C   LIG     1     -21.319 -12.715 -10.833  1.00  0.00     0.280 C 
HETATM    9  O   LIG     1     -21.188 -11.522 -11.098  1.00  0.00    -0.265 OA
HETATM   10  H   LIG     1     -21.524 -14.681 -11.459  1.00  0.00     0.169 HD
BRANCH   8  11
HETATM   11  C   LIG     1     -21.338 -13.184  -9.436  1.00  0.00     0.144 A 
HETATM   12  O   LIG     1     -21.794 -14.425  -9.242  1.00  0.00    -0.304 OA
HETATM   13  C   LIG     1     -21.712 -14.616  -7.899  1.00  0.00     0.088 A 
HETATM   14  C   LIG     1     -21.207 -13.496  -7.281  1.00  0.00     0.041 A 
HETATM   15  C   LIG     1     -20.964 -12.556  -8.311  1.00  0.00     0.046 A 
BRANCH  13  16
HETATM   16  C   LIG     1     -22.152 -15.900  -7.432  1.00  0.00     0.019 A 
HETATM   17  C   LIG     1     -21.501 -17.089  -7.789  1.00  0.00     0.047 A 
HETATM   18 CL   LIG     1     -20.116 -17.088  -8.824  1.00  0.00    -0.083 Cl
HETATM   19  C   LIG     1     -21.963 -18.316  -7.313  1.00  0.00     0.025 A 
HETATM   20  C   LIG     1     -23.078 -18.365  -6.476  1.00  0.00     0.002 A 
HETATM   21  C   LIG     1     -23.731 -17.187  -6.116  1.00  0.00     0.001 A 
HETATM   22  C   LIG     1     -23.271 -15.959  -6.591  1.00  0.00     0.016 A 
ENDBRANCH  13  16
ENDBRANCH   8  11
ENDBRANCH   4   7
BRANCH   5  23
HETATM   23  O   LIG     1     -19.032 -13.195 -13.179  1.00  0.00    -0.354 OA
HETATM   24  C   LIG     1     -18.064 -14.233 -13.322  1.00  0.00     0.210 C 
ENDBRANCH   5  23
BRANCH   1  25
HETATM   25  S   LIG     1     -24.056 -13.806 -16.208  1.00  0.00     0.243 S 
HETATM   26  O   LIG     1     -24.966 -12.767 -15.774  1.00  0.00    -0.206 OA
HETATM   27  O   LIG     1     -23.712 -13.960 -17.606  1.00  0.00    -0.206 OA
BRANCH  25  28
HETATM   28  N   LIG     1     -24.596 -15.313 -15.600  1.00  0.00    -0.202 NA
HETATM   29  C   LIG     1     -25.971 -15.718 -16.015  1.00  0.00     0.134 C 
HETATM   30  C   LIG     1     -26.389 -16.934 -15.200  1.00  0.00     0.183 C 
HETATM   31  O   LIG     1     -25.459 -18.002 -15.389  1.00  0.00    -0.389 OA
HETATM   32  C   LIG     1     -24.153 -17.631 -14.943  1.00  0.00     0.183 C 
HETATM   33  C   LIG     1     -23.636 -16.447 -15.746  1.00  0.00     0.134 C 
ENDBRANCH  25  28
ENDBRANCH   1  25
TORSDOF 6
ENDMDL
