MODEL 1
REMARK VINA RESULT:      -9.1      0.000      0.000
REMARK  1 active torsions:
REMARK  status: ('A' for Active; 'I' for Inactive)
REMARK    1  A    between atoms: O_1  and  C_10 
ROOT
HETATM    1  O   LIG     1     -19.111 -21.847 -10.489  1.00  0.00    -0.293 OA
HETATM    2  C   LIG     1     -21.464 -15.098 -13.186  1.00  0.00     0.001 C 
HETATM    3  C   LIG     1     -21.472 -13.911 -12.203  1.00  0.00    -0.014 C 
HETATM    4  C   LIG     1     -20.316 -16.077 -12.920  1.00  0.00    -0.004 C 
HETATM    5  C   LIG     1     -20.462 -16.641 -11.471  1.00  0.00     0.002 C 
HETATM    6  C   LIG     1     -19.348 -17.698 -11.112  1.00  0.00    -0.016 C 
HETATM    7  C   LIG     1     -21.689 -14.467 -10.789  1.00  0.00     0.012 C 
HETATM    8  C   LIG     1     -20.616 -15.506 -10.420  1.00  0.00     0.007 C 
HETATM    9  C   LIG     1     -22.664 -13.120 -12.774  1.00  0.00     0.126 C 
HETATM   10  C   LIG     1     -21.570 -14.429 -14.553  1.00  0.00     0.008 C 
HETATM   11  C   LIG     1     -20.316 -17.227 -13.935  1.00  0.00     0.010 C 
HETATM   12  C   LIG     1     -22.471 -13.206 -14.302  1.00  0.00     0.033 C 
HETATM   13  C   LIG     1     -19.250 -18.742 -12.231  1.00  0.00    -0.068 C 
HETATM   14  C   LIG     1     -19.194 -18.216 -13.647  1.00  0.00     0.035 C 
HETATM   15  C   LIG     1     -20.188 -13.043 -12.227  1.00  0.00     0.018 C 
HETATM   16  C   LIG     1     -19.742 -18.388  -9.774  1.00  0.00     0.022 C 
HETATM   17  C   LIG     1     -17.959 -17.040 -10.944  1.00  0.00     0.020 C 
HETATM   18  C   LIG     1     -18.973 -19.671  -9.499  1.00  0.00     0.084 C 
HETATM   19  C   LIG     1     -19.191 -20.067 -12.020  1.00  0.00     0.053 C 
HETATM   20  C   LIG     1     -19.120 -20.628 -10.651  1.00  0.00     0.149 C 
ENDROOT
BRANCH   9  21
HETATM   21  O   LIG     1     -22.704 -11.779 -12.326  1.00  0.00    -0.395 OA
HETATM   22  H   LIG     1     -23.631 -11.518 -12.197  1.00  0.00     0.210 HD
ENDBRANCH   9  21
TORSDOF 1
ENDMDL
