MODEL 1
REMARK VINA RESULT:      -7.4      0.000      0.000
REMARK  1 active torsions:
REMARK  status: ('A' for Active; 'I' for Inactive)
REMARK    1  A    between atoms: N_7  and  C_13 
ROOT
HETATM    1  N   LIG     1     -19.531 -20.743 -14.066  1.00  0.00    -0.048 NA
HETATM    2  N   LIG     1     -20.696 -21.131 -14.245  1.00  0.00    -0.160 NA
HETATM    3  N   LIG     1     -21.763 -21.492 -14.428  1.00  0.00     0.068 N 
ENDROOT
BRANCH   1   4
HETATM    4  C   LIG     1     -19.334 -20.218 -12.814  1.00  0.00     0.236 A 
HETATM    5  N   LIG     1     -19.326 -21.041 -11.803  1.00  0.00    -0.126 NA
HETATM    6  N   LIG     1     -19.127 -20.452 -10.597  1.00  0.00    -0.136 N 
HETATM    7  N   LIG     1     -19.087 -21.131  -9.439  1.00  0.00     0.020 NA
HETATM    8  C   LIG     1     -18.940 -19.114 -10.343  1.00  0.00     0.196 A 
HETATM    9  N   LIG     1     -18.879 -20.211  -8.503  1.00  0.00     0.020 NA
HETATM   10  N   LIG     1     -18.785 -18.950  -9.050  1.00  0.00    -0.140 NA
HETATM   11  C   LIG     1     -18.947 -18.198 -11.452  1.00  0.00     0.047 A 
HETATM   12  C   LIG     1     -19.147 -18.745 -12.718  1.00  0.00     0.122 A 
HETATM   13  C   LIG     1     -18.771 -16.825 -11.351  1.00  0.00     0.019 A 
HETATM   14  N   LIG     1     -19.182 -18.033 -13.863  1.00  0.00    -0.256 NA
HETATM   15  C   LIG     1     -19.007 -16.698 -13.727  1.00  0.00     0.117 A 
HETATM   16  C   LIG     1     -18.801 -16.055 -12.512  1.00  0.00     0.020 A 
ENDBRANCH   1   4
TORSDOF 1
ENDMDL
MODEL 2
REMARK VINA RESULT:      -7.3      1.376      3.654
REMARK  1 active torsions:
REMARK  status: ('A' for Active; 'I' for Inactive)
REMARK    1  A    between atoms: N_7  and  C_13 
ROOT
HETATM    1  N   LIG     1     -19.524 -21.285 -13.348  1.00  0.00    -0.048 NA
HETATM    2  N   LIG     1     -20.571 -21.386 -14.006  1.00  0.00    -0.160 NA
HETATM    3  N   LIG     1     -21.530 -21.497 -14.615  1.00  0.00     0.068 N 
ENDROOT
BRANCH   1   4
HETATM    4  C   LIG     1     -19.328 -20.020 -12.856  1.00  0.00     0.236 A 
HETATM    5  N   LIG     1     -19.309 -19.032 -13.707  1.00  0.00    -0.126 NA
HETATM    6  N   LIG     1     -19.111 -17.811 -13.150  1.00  0.00    -0.136 N 
HETATM    7  N   LIG     1     -19.058 -16.673 -13.861  1.00  0.00     0.020 NA
HETATM    8  C   LIG     1     -18.931 -17.521 -11.819  1.00  0.00     0.196 A 
HETATM    9  N   LIG     1     -18.851 -15.712 -12.966  1.00  0.00     0.020 NA
HETATM   10  N   LIG     1     -18.769 -16.225 -11.689  1.00  0.00    -0.140 NA
HETATM   11  C   LIG     1     -18.951 -18.603 -10.872  1.00  0.00     0.047 A 
HETATM   12  C   LIG     1     -19.152 -19.883 -11.385  1.00  0.00     0.122 A 
HETATM   13  C   LIG     1     -18.785 -18.465  -9.500  1.00  0.00     0.019 A 
HETATM   14  N   LIG     1     -19.198 -21.008 -10.642  1.00  0.00    -0.256 NA
HETATM   15  C   LIG     1     -19.033 -20.835  -9.310  1.00  0.00     0.117 A 
HETATM   16  C   LIG     1     -18.827 -19.603  -8.699  1.00  0.00     0.020 A 
ENDBRANCH   1   4
TORSDOF 1
ENDMDL
MODEL 3
REMARK VINA RESULT:      -7.2      1.074      3.849
REMARK  1 active torsions:
REMARK  status: ('A' for Active; 'I' for Inactive)
REMARK    1  A    between atoms: N_7  and  C_13 
ROOT
HETATM    1  N   LIG     1     -18.719 -18.772  -9.149  1.00  0.00    -0.048 NA
HETATM    2  N   LIG     1     -18.892 -19.668  -8.307  1.00  0.00    -0.160 NA
HETATM    3  N   LIG     1     -19.045 -20.480  -7.520  1.00  0.00     0.068 N 
ENDROOT
BRANCH   1   4
HETATM    4  C   LIG     1     -18.945 -19.199 -10.432  1.00  0.00     0.236 A 
HETATM    5  N   LIG     1     -19.081 -20.481 -10.632  1.00  0.00    -0.126 NA
HETATM    6  N   LIG     1     -19.302 -20.831 -11.924  1.00  0.00    -0.136 N 
HETATM    7  N   LIG     1     -19.466 -22.101 -12.329  1.00  0.00     0.020 NA
HETATM    8  C   LIG     1     -19.393 -19.995 -13.010  1.00  0.00     0.196 A 
HETATM    9  N   LIG     1     -19.653 -22.026 -13.643  1.00  0.00     0.020 NA
HETATM   10  N   LIG     1     -19.611 -20.720 -14.082  1.00  0.00    -0.140 NA
HETATM   11  C   LIG     1     -19.245 -18.579 -12.801  1.00  0.00     0.047 A 
HETATM   12  C   LIG     1     -19.016 -18.158 -11.492  1.00  0.00     0.122 A 
HETATM   13  C   LIG     1     -19.313 -17.615 -13.798  1.00  0.00     0.019 A 
HETATM   14  N   LIG     1     -18.855 -16.872 -11.119  1.00  0.00    -0.256 NA
HETATM   15  C   LIG     1     -18.927 -15.960 -12.116  1.00  0.00     0.117 A 
HETATM   16  C   LIG     1     -19.151 -16.276 -13.451  1.00  0.00     0.020 A 
ENDBRANCH   1   4
TORSDOF 1
ENDMDL
MODEL 4
REMARK VINA RESULT:      -7.2      1.949      4.847
REMARK  1 active torsions:
REMARK  status: ('A' for Active; 'I' for Inactive)
REMARK    1  A    between atoms: N_7  and  C_13 
ROOT
HETATM    1  N   LIG     1     -19.031 -19.333  -8.875  1.00  0.00    -0.048 NA
HETATM    2  N   LIG     1     -20.061 -19.048  -8.244  1.00  0.00    -0.160 NA
HETATM    3  N   LIG     1     -21.001 -18.796  -7.648  1.00  0.00     0.068 N 
ENDROOT
BRANCH   1   4
HETATM    4  C   LIG     1     -19.058 -18.873 -10.167  1.00  0.00     0.236 A 
HETATM    5  N   LIG     1     -18.933 -17.589 -10.360  1.00  0.00    -0.126 NA
HETATM    6  N   LIG     1     -18.969 -17.208 -11.661  1.00  0.00    -0.136 N 
HETATM    7  N   LIG     1     -18.858 -15.930 -12.061  1.00  0.00     0.020 NA
HETATM    8  C   LIG     1     -19.121 -18.014 -12.763  1.00  0.00     0.196 A 
HETATM    9  N   LIG     1     -18.942 -15.972 -13.387  1.00  0.00     0.020 NA
HETATM   10  N   LIG     1     -19.106 -17.263 -13.839  1.00  0.00    -0.140 NA
HETATM   11  C   LIG     1     -19.259 -19.432 -12.562  1.00  0.00     0.047 A 
HETATM   12  C   LIG     1     -19.229 -19.885 -11.244  1.00  0.00     0.122 A 
HETATM   13  C   LIG     1     -19.418 -20.369 -13.574  1.00  0.00     0.019 A 
HETATM   14  N   LIG     1     -19.345 -21.178 -10.876  1.00  0.00    -0.256 NA
HETATM   15  C   LIG     1     -19.498 -22.062 -11.889  1.00  0.00     0.117 A 
HETATM   16  C   LIG     1     -19.541 -21.714 -13.234  1.00  0.00     0.020 A 
ENDBRANCH   1   4
TORSDOF 1
ENDMDL
MODEL 5
REMARK VINA RESULT:      -7.2      1.711      4.270
REMARK  1 active torsions:
REMARK  status: ('A' for Active; 'I' for Inactive)
REMARK    1  A    between atoms: N_7  and  C_13 
ROOT
HETATM    1  N   LIG     1     -18.896 -16.736 -12.315  1.00  0.00    -0.048 NA
HETATM    2  N   LIG     1     -19.885 -16.153 -12.787  1.00  0.00    -0.160 NA
HETATM    3  N   LIG     1     -20.786 -15.601 -13.219  1.00  0.00     0.068 N 
ENDROOT
BRANCH   1   4
HETATM    4  C   LIG     1     -19.052 -18.097 -12.275  1.00  0.00     0.236 A 
HETATM    5  N   LIG     1     -19.259 -18.720 -13.402  1.00  0.00    -0.126 NA
HETATM    6  N   LIG     1     -19.405 -20.064 -13.286  1.00  0.00    -0.136 N 
HETATM    7  N   LIG     1     -19.626 -20.877 -14.331  1.00  0.00     0.020 NA
HETATM    8  C   LIG     1     -19.358 -20.812 -12.134  1.00  0.00     0.196 A 
HETATM    9  N   LIG     1     -19.711 -22.098 -13.812  1.00  0.00     0.020 NA
HETATM   10  N   LIG     1     -19.546 -22.073 -12.443  1.00  0.00    -0.140 NA
HETATM   11  C   LIG     1     -19.130 -20.135 -10.885  1.00  0.00     0.047 A 
HETATM   12  C   LIG     1     -18.972 -18.751 -10.941  1.00  0.00     0.122 A 
HETATM   13  C   LIG     1     -19.057 -20.754  -9.645  1.00  0.00     0.019 A 
HETATM   14  N   LIG     1     -18.752 -17.962  -9.869  1.00  0.00    -0.256 NA
HETATM   15  C   LIG     1     -18.687 -18.600  -8.677  1.00  0.00     0.117 A 
HETATM   16  C   LIG     1     -18.830 -19.973  -8.514  1.00  0.00     0.020 A 
ENDBRANCH   1   4
TORSDOF 1
ENDMDL
MODEL 6
REMARK VINA RESULT:      -7.0      1.490      3.419
REMARK  1 active torsions:
REMARK  status: ('A' for Active; 'I' for Inactive)
REMARK    1  A    between atoms: N_7  and  C_13 
ROOT
HETATM    1  N   LIG     1     -19.002 -17.437 -13.455  1.00  0.00    -0.048 NA
HETATM    2  N   LIG     1     -20.132 -16.993 -13.715  1.00  0.00    -0.160 NA
HETATM    3  N   LIG     1     -21.163 -16.575 -13.967  1.00  0.00     0.068 N 
ENDROOT
BRANCH   1   4
HETATM    4  C   LIG     1     -19.010 -18.333 -12.418  1.00  0.00     0.236 A 
HETATM    5  N   LIG     1     -18.789 -17.876 -11.216  1.00  0.00    -0.126 NA
HETATM    6  N   LIG     1     -18.812 -18.819 -10.241  1.00  0.00    -0.136 N 
HETATM    7  N   LIG     1     -18.606 -18.545  -8.943  1.00  0.00     0.020 NA
HETATM    8  C   LIG     1     -19.037 -20.166 -10.388  1.00  0.00     0.196 A 
HETATM    9  N   LIG     1     -18.706 -19.715  -8.320  1.00  0.00     0.020 NA
HETATM   10  N   LIG     1     -18.975 -20.735  -9.207  1.00  0.00    -0.140 NA
HETATM   11  C   LIG     1     -19.282 -20.681 -11.709  1.00  0.00     0.047 A 
HETATM   12  C   LIG     1     -19.271 -19.759 -12.754  1.00  0.00     0.122 A 
HETATM   13  C   LIG     1     -19.525 -22.013 -12.013  1.00  0.00     0.019 A 
HETATM   14  N   LIG     1     -19.482 -20.068 -14.051  1.00  0.00    -0.256 NA
HETATM   15  C   LIG     1     -19.715 -21.375 -14.309  1.00  0.00     0.117 A 
HETATM   16  C   LIG     1     -19.747 -22.372 -13.340  1.00  0.00     0.020 A 
ENDBRANCH   1   4
TORSDOF 1
ENDMDL
MODEL 7
REMARK VINA RESULT:      -6.9      1.836      4.004
REMARK  1 active torsions:
REMARK  status: ('A' for Active; 'I' for Inactive)
REMARK    1  A    between atoms: N_7  and  C_13 
ROOT
HETATM    1  N   LIG     1     -19.473 -16.364  -8.802  1.00  0.00    -0.048 NA
HETATM    2  N   LIG     1     -20.533 -16.358  -8.156  1.00  0.00    -0.160 NA
HETATM    3  N   LIG     1     -21.502 -16.337  -7.554  1.00  0.00     0.068 N 
ENDROOT
BRANCH   1   4
HETATM    4  C   LIG     1     -19.352 -17.464  -9.611  1.00  0.00     0.236 A 
HETATM    5  N   LIG     1     -19.287 -18.636  -9.041  1.00  0.00    -0.126 NA
HETATM    6  N   LIG     1     -19.169 -19.677  -9.902  1.00  0.00    -0.136 N 
HETATM    7  N   LIG     1     -19.086 -20.958  -9.508  1.00  0.00     0.020 NA
HETATM    8  C   LIG     1     -19.110 -19.622 -11.274  1.00  0.00     0.196 A 
HETATM    9  N   LIG     1     -18.980 -21.662 -10.630  1.00  0.00     0.020 NA
HETATM   10  N   LIG     1     -18.993 -20.844 -11.739  1.00  0.00    -0.140 NA
HETATM   11  C   LIG     1     -19.180 -18.335 -11.913  1.00  0.00     0.047 A 
HETATM   12  C   LIG     1     -19.304 -17.226 -11.079  1.00  0.00     0.122 A 
HETATM   13  C   LIG     1     -19.135 -18.123 -13.284  1.00  0.00     0.019 A 
HETATM   14  N   LIG     1     -19.383 -15.949 -11.509  1.00  0.00    -0.256 NA
HETATM   15  C   LIG     1     -19.335 -15.781 -12.851  1.00  0.00     0.117 A 
HETATM   16  C   LIG     1     -19.214 -16.819 -13.767  1.00  0.00     0.020 A 
ENDBRANCH   1   4
TORSDOF 1
ENDMDL
MODEL 8
REMARK VINA RESULT:      -6.6      3.341      5.298
REMARK  1 active torsions:
REMARK  status: ('A' for Active; 'I' for Inactive)
REMARK    1  A    between atoms: N_7  and  C_13 
ROOT
HETATM    1  N   LIG     1     -19.233 -19.400  -8.642  1.00  0.00    -0.048 NA
HETATM    2  N   LIG     1     -19.067 -20.314  -9.466  1.00  0.00    -0.160 NA
HETATM    3  N   LIG     1     -18.907 -21.164 -10.210  1.00  0.00     0.068 N 
ENDROOT
BRANCH   1   4
HETATM    4  C   LIG     1     -19.737 -18.259  -9.211  1.00  0.00     0.236 A 
HETATM    5  N   LIG     1     -19.126 -17.780 -10.260  1.00  0.00    -0.126 NA
HETATM    6  N   LIG     1     -19.679 -16.651 -10.768  1.00  0.00    -0.136 N 
HETATM    7  N   LIG     1     -19.194 -16.009 -11.843  1.00  0.00     0.020 NA
HETATM    8  C   LIG     1     -20.784 -15.980 -10.302  1.00  0.00     0.196 A 
HETATM    9  N   LIG     1     -19.999 -14.966 -12.020  1.00  0.00     0.020 NA
HETATM   10  N   LIG     1     -20.995 -14.935 -11.067  1.00  0.00    -0.140 NA
HETATM   11  C   LIG     1     -21.465 -16.499  -9.147  1.00  0.00     0.047 A 
HETATM   12  C   LIG     1     -20.943 -17.660  -8.579  1.00  0.00     0.122 A 
HETATM   13  C   LIG     1     -22.591 -15.933  -8.564  1.00  0.00     0.019 A 
HETATM   14  N   LIG     1     -21.455 -18.280  -7.495  1.00  0.00    -0.256 NA
HETATM   15  C   LIG     1     -22.552 -17.700  -6.954  1.00  0.00     0.117 A 
HETATM   16  C   LIG     1     -23.149 -16.544  -7.443  1.00  0.00     0.020 A 
ENDBRANCH   1   4
TORSDOF 1
ENDMDL
MODEL 9
REMARK VINA RESULT:      -6.6      3.540      4.824
REMARK  1 active torsions:
REMARK  status: ('A' for Active; 'I' for Inactive)
REMARK    1  A    between atoms: N_7  and  C_13 
ROOT
HETATM    1  N   LIG     1     -20.736 -15.721 -10.968  1.00  0.00    -0.048 NA
HETATM    2  N   LIG     1     -20.994 -16.115 -12.117  1.00  0.00    -0.160 NA
HETATM    3  N   LIG     1     -21.233 -16.459 -13.178  1.00  0.00     0.068 N 
ENDROOT
BRANCH   1   4
HETATM    4  C   LIG     1     -20.623 -16.750 -10.068  1.00  0.00     0.236 A 
HETATM    5  N   LIG     1     -19.691 -17.639 -10.273  1.00  0.00    -0.126 NA
HETATM    6  N   LIG     1     -19.639 -18.626  -9.344  1.00  0.00    -0.136 N 
HETATM    7  N   LIG     1     -18.750 -19.632  -9.382  1.00  0.00     0.020 NA
HETATM    8  C   LIG     1     -20.447 -18.779  -8.243  1.00  0.00     0.196 A 
HETATM    9  N   LIG     1     -19.022 -20.378  -8.316  1.00  0.00     0.020 NA
HETATM   10  N   LIG     1     -20.077 -19.859  -7.596  1.00  0.00    -0.140 NA
HETATM   11  C   LIG     1     -21.478 -17.804  -8.007  1.00  0.00     0.047 A 
HETATM   12  C   LIG     1     -21.581 -16.763  -8.929  1.00  0.00     0.122 A 
HETATM   13  C   LIG     1     -22.367 -17.825  -6.941  1.00  0.00     0.019 A 
HETATM   14  N   LIG     1     -22.488 -15.767  -8.862  1.00  0.00    -0.256 NA
HETATM   15  C   LIG     1     -23.337 -15.820  -7.810  1.00  0.00     0.117 A 
HETATM   16  C   LIG     1     -23.318 -16.813  -6.837  1.00  0.00     0.020 A 
ENDBRANCH   1   4
TORSDOF 1
ENDMDL
