MODEL 1
REMARK VINA RESULT:     -10.2      0.000      0.000
REMARK  13 active torsions:
REMARK  status: ('A' for Active; 'I' for Inactive)
REMARK    1  A    between atoms: O_1  and  C_12 
REMARK    2  A    between atoms: O_1  and  C_17 
REMARK    3  A    between atoms: N_5  and  C_18 
REMARK       I    between atoms: N_5  and  C_32 
REMARK    4  A    between atoms: C_6  and  C_11 
REMARK    5  A    between atoms: C_6  and  C_12 
REMARK    6  A    between atoms: C_9  and  C_14 
REMARK    7  A    between atoms: C_11  and  C_13 
REMARK    8  A    between atoms: C_13  and  C_15 
REMARK    9  A    between atoms: C_15  and  C_16 
REMARK   10  A    between atoms: C_16  and  C_18 
REMARK   11  A    between atoms: C_17  and  C_21 
REMARK   12  A    between atoms: C_17  and  C_22 
REMARK   13  A    between atoms: C_17  and  C_23 
ROOT
HETATM    1  C   LIG     1     -22.000 -15.209  -9.629  1.00  0.00    -0.018 C 
HETATM    2  C   LIG     1     -20.922 -14.542  -8.759  1.00  0.00     0.024 C 
HETATM    3  C   LIG     1     -23.232 -14.346  -9.324  1.00  0.00     0.012 C 
HETATM    4  C   LIG     1     -21.230 -13.033  -8.818  1.00  0.00     0.056 C 
HETATM    5  C   LIG     1     -22.703 -12.914  -9.251  1.00  0.00     0.013 C 
ENDROOT
BRANCH   1   6
HETATM    6  C   LIG     1     -22.225 -16.668  -9.226  1.00  0.00     0.012 C 
BRANCH   6   7
HETATM    7  C   LIG     1     -21.319 -17.075  -8.063  1.00  0.00     0.001 C 
BRANCH   7   8
HETATM    8  C   LIG     1     -20.840 -18.522  -8.215  1.00  0.00     0.006 C 
BRANCH   8   9
HETATM    9  C   LIG     1     -19.696 -18.693  -9.243  1.00  0.00     0.004 C 
HETATM   10  C   LIG     1     -18.847 -17.420  -9.357  1.00  0.00     0.012 C 
BRANCH   9  11
HETATM   11  C   LIG     1     -18.856 -19.956  -8.911  1.00  0.00     0.084 C 
HETATM   12  C   LIG     1     -18.997 -20.405  -7.458  1.00  0.00     0.032 C 
BRANCH  11  13
HETATM   13  N   LIG     1     -19.141 -21.061  -9.796  1.00  0.00    -0.357 N 
HETATM   14  C   LIG     1     -19.138 -20.947 -11.176  1.00  0.00     0.213 C 
HETATM   15  O   LIG     1     -18.901 -19.925 -11.814  1.00  0.00    -0.274 OA
HETATM   16  C   LIG     1     -19.442 -22.255 -11.857  1.00  0.00     0.117 C 
HETATM   17  H   LIG     1     -19.278 -21.980  -9.386  1.00  0.00     0.162 HD
ENDBRANCH  11  13
ENDBRANCH   9  11
ENDBRANCH   8   9
ENDBRANCH   7   8
ENDBRANCH   6   7
ENDBRANCH   1   6
BRANCH   1  18
HETATM   18  C   LIG     1     -21.628 -15.149 -11.119  1.00  0.00     0.179 C 
BRANCH  18  19
HETATM   19  O   LIG     1     -22.657 -15.777 -11.854  1.00  0.00    -0.365 OA
BRANCH  19  20
HETATM   20  C   LIG     1     -22.368 -15.813 -13.249  1.00  0.00     0.142 C 
BRANCH  20  21
HETATM   21  C   LIG     1     -20.831 -15.810 -13.406  1.00  0.00    -0.015 A 
HETATM   22  C   LIG     1     -20.199 -14.750 -14.056  1.00  0.00     0.011 A 
HETATM   23  C   LIG     1     -18.811 -14.746 -14.197  1.00  0.00     0.001 A 
HETATM   24  C   LIG     1     -18.056 -15.803 -13.690  1.00  0.00     0.000 A 
HETATM   25  C   LIG     1     -18.689 -16.864 -13.040  1.00  0.00     0.001 A 
HETATM   26  C   LIG     1     -20.076 -16.866 -12.899  1.00  0.00     0.011 A 
ENDBRANCH  20  21
BRANCH  20  27
HETATM   27  C   LIG     1     -23.038 -17.105 -13.764  1.00  0.00    -0.015 A 
HETATM   28  C   LIG     1     -24.308 -17.462 -13.310  1.00  0.00     0.011 A 
HETATM   29  C   LIG     1     -24.913 -18.629 -13.776  1.00  0.00     0.001 A 
HETATM   30  C   LIG     1     -24.249 -19.439 -14.697  1.00  0.00     0.000 A 
HETATM   31  C   LIG     1     -22.980 -19.082 -15.152  1.00  0.00     0.001 A 
HETATM   32  C   LIG     1     -22.374 -17.915 -14.686  1.00  0.00     0.011 A 
ENDBRANCH  20  27
BRANCH  20  33
HETATM   33  C   LIG     1     -23.032 -14.542 -13.826  1.00  0.00    -0.015 A 
HETATM   34  C   LIG     1     -23.071 -13.371 -13.070  1.00  0.00     0.011 A 
HETATM   35  C   LIG     1     -23.669 -12.225 -13.591  1.00  0.00     0.001 A 
HETATM   36  C   LIG     1     -24.229 -12.248 -14.868  1.00  0.00     0.000 A 
HETATM   37  C   LIG     1     -24.189 -13.420 -15.625  1.00  0.00     0.001 A 
HETATM   38  C   LIG     1     -23.591 -14.567 -15.104  1.00  0.00     0.011 A 
ENDBRANCH  20  33
ENDBRANCH  19  20
ENDBRANCH  18  19
ENDBRANCH   1  18
BRANCH   4  39
HETATM   39  C   LIG     1     -20.918 -12.319  -7.518  1.00  0.00     0.107 A 
HETATM   40  N   LIG     1     -21.912 -11.836  -6.714  1.00  0.00    -0.353 N 
HETATM   41  C   LIG     1     -21.317 -11.253  -5.632  1.00  0.00     0.109 A 
HETATM   42  H   LIG     1     -22.907 -11.897  -6.887  1.00  0.00     0.166 HD
HETATM   43  C   LIG     1     -19.969 -11.417  -5.841  1.00  0.00     0.135 A 
HETATM   44  N   LIG     1     -19.726 -12.080  -7.018  1.00  0.00    -0.246 NA
ENDBRANCH   4  39
TORSDOF 13
ENDMDL
MODEL 2
REMARK VINA RESULT:     -10.1      3.360      7.057
REMARK  13 active torsions:
REMARK  status: ('A' for Active; 'I' for Inactive)
REMARK    1  A    between atoms: O_1  and  C_12 
REMARK    2  A    between atoms: O_1  and  C_17 
REMARK    3  A    between atoms: N_5  and  C_18 
REMARK       I    between atoms: N_5  and  C_32 
REMARK    4  A    between atoms: C_6  and  C_11 
REMARK    5  A    between atoms: C_6  and  C_12 
REMARK    6  A    between atoms: C_9  and  C_14 
REMARK    7  A    between atoms: C_11  and  C_13 
REMARK    8  A    between atoms: C_13  and  C_15 
REMARK    9  A    between atoms: C_15  and  C_16 
REMARK   10  A    between atoms: C_16  and  C_18 
REMARK   11  A    between atoms: C_17  and  C_21 
REMARK   12  A    between atoms: C_17  and  C_22 
REMARK   13  A    between atoms: C_17  and  C_23 
ROOT
HETATM    1  C   LIG     1     -22.701 -15.779 -13.631  1.00  0.00    -0.018 C 
HETATM    2  C   LIG     1     -23.734 -15.121 -14.560  1.00  0.00     0.024 C 
HETATM    3  C   LIG     1     -21.377 -15.279 -14.224  1.00  0.00     0.012 C 
HETATM    4  C   LIG     1     -23.152 -13.734 -14.894  1.00  0.00     0.056 C 
HETATM    5  C   LIG     1     -21.642 -13.824 -14.609  1.00  0.00     0.013 C 
ENDROOT
BRANCH   1   6
HETATM    6  C   LIG     1     -22.794 -17.305 -13.678  1.00  0.00     0.012 C 
BRANCH   6   7
HETATM    7  C   LIG     1     -22.305 -17.856 -15.019  1.00  0.00     0.001 C 
BRANCH   7   8
HETATM    8  C   LIG     1     -23.313 -18.847 -15.611  1.00  0.00     0.006 C 
BRANCH   8   9
HETATM    9  C   LIG     1     -23.599 -20.061 -14.695  1.00  0.00     0.004 C 
HETATM   10  C   LIG     1     -25.100 -20.375 -14.630  1.00  0.00     0.012 C 
BRANCH   9  11
HETATM   11  C   LIG     1     -22.742 -21.279 -15.131  1.00  0.00     0.084 C 
HETATM   12  C   LIG     1     -21.332 -21.261 -14.545  1.00  0.00     0.032 C 
BRANCH  11  13
HETATM   13  N   LIG     1     -23.379 -22.542 -14.837  1.00  0.00    -0.357 N 
HETATM   14  C   LIG     1     -24.096 -23.265 -15.774  1.00  0.00     0.213 C 
HETATM   15  O   LIG     1     -24.283 -22.943 -16.944  1.00  0.00    -0.274 OA
HETATM   16  C   LIG     1     -24.633 -24.554 -15.211  1.00  0.00     0.117 C 
HETATM   17  H   LIG     1     -23.231 -22.951 -13.919  1.00  0.00     0.162 HD
ENDBRANCH  11  13
ENDBRANCH   9  11
ENDBRANCH   8   9
ENDBRANCH   7   8
ENDBRANCH   6   7
ENDBRANCH   1   6
BRANCH   1  18
HETATM   18  C   LIG     1     -22.879 -15.308 -12.179  1.00  0.00     0.179 C 
BRANCH  18  19
HETATM   19  O   LIG     1     -22.507 -16.369 -11.324  1.00  0.00    -0.365 OA
BRANCH  19  20
HETATM   20  C   LIG     1     -21.808 -15.904 -10.173  1.00  0.00     0.142 C 
BRANCH  20  21
HETATM   21  C   LIG     1     -22.643 -16.293  -8.933  1.00  0.00    -0.015 A 
HETATM   22  C   LIG     1     -23.964 -16.714  -9.086  1.00  0.00     0.011 A 
HETATM   23  C   LIG     1     -24.718 -17.066  -7.966  1.00  0.00     0.001 A 
HETATM   24  C   LIG     1     -24.151 -16.996  -6.694  1.00  0.00     0.000 A 
HETATM   25  C   LIG     1     -22.830 -16.574  -6.541  1.00  0.00     0.001 A 
HETATM   26  C   LIG     1     -22.077 -16.223  -7.660  1.00  0.00     0.011 A 
ENDBRANCH  20  21
BRANCH  20  27
HETATM   27  C   LIG     1     -20.430 -16.599 -10.232  1.00  0.00    -0.015 A 
HETATM   28  C   LIG     1     -19.951 -17.098 -11.444  1.00  0.00     0.011 A 
HETATM   29  C   LIG     1     -18.707 -17.726 -11.496  1.00  0.00     0.001 A 
HETATM   30  C   LIG     1     -17.941 -17.854 -10.338  1.00  0.00     0.000 A 
HETATM   31  C   LIG     1     -18.420 -17.355  -9.126  1.00  0.00     0.001 A 
HETATM   32  C   LIG     1     -19.664 -16.728  -9.073  1.00  0.00     0.011 A 
ENDBRANCH  20  27
BRANCH  20  33
HETATM   33  C   LIG     1     -21.697 -14.375 -10.365  1.00  0.00    -0.015 A 
HETATM   34  C   LIG     1     -20.630 -13.837 -11.083  1.00  0.00     0.011 A 
HETATM   35  C   LIG     1     -20.530 -12.457 -11.256  1.00  0.00     0.001 A 
HETATM   36  C   LIG     1     -21.499 -11.613 -10.711  1.00  0.00     0.000 A 
HETATM   37  C   LIG     1     -22.567 -12.152  -9.993  1.00  0.00     0.001 A 
HETATM   38  C   LIG     1     -22.667 -13.532  -9.820  1.00  0.00     0.011 A 
ENDBRANCH  20  33
ENDBRANCH  19  20
ENDBRANCH  18  19
ENDBRANCH   1  18
BRANCH   4  39
HETATM   39  C   LIG     1     -23.480 -13.285 -16.305  1.00  0.00     0.107 A 
HETATM   40  N   LIG     1     -23.686 -11.967 -16.603  1.00  0.00    -0.353 N 
HETATM   41  C   LIG     1     -23.958 -11.886 -17.939  1.00  0.00     0.109 A 
HETATM   42  H   LIG     1     -23.645 -11.191 -15.954  1.00  0.00     0.166 HD
HETATM   43  C   LIG     1     -23.901 -13.184 -18.388  1.00  0.00     0.135 A 
HETATM   44  N   LIG     1     -23.604 -14.050 -17.366  1.00  0.00    -0.246 NA
ENDBRANCH   4  39
TORSDOF 13
ENDMDL
MODEL 3
REMARK VINA RESULT:     -10.1      3.356      7.112
REMARK  13 active torsions:
REMARK  status: ('A' for Active; 'I' for Inactive)
REMARK    1  A    between atoms: O_1  and  C_12 
REMARK    2  A    between atoms: O_1  and  C_17 
REMARK    3  A    between atoms: N_5  and  C_18 
REMARK       I    between atoms: N_5  and  C_32 
REMARK    4  A    between atoms: C_6  and  C_11 
REMARK    5  A    between atoms: C_6  and  C_12 
REMARK    6  A    between atoms: C_9  and  C_14 
REMARK    7  A    between atoms: C_11  and  C_13 
REMARK    8  A    between atoms: C_13  and  C_15 
REMARK    9  A    between atoms: C_15  and  C_16 
REMARK   10  A    between atoms: C_16  and  C_18 
REMARK   11  A    between atoms: C_17  and  C_21 
REMARK   12  A    between atoms: C_17  and  C_22 
REMARK   13  A    between atoms: C_17  and  C_23 
ROOT
HETATM    1  C   LIG     1     -22.699 -15.777 -13.600  1.00  0.00    -0.018 C 
HETATM    2  C   LIG     1     -23.732 -15.152 -14.551  1.00  0.00     0.024 C 
HETATM    3  C   LIG     1     -21.377 -15.248 -14.175  1.00  0.00     0.012 C 
HETATM    4  C   LIG     1     -23.180 -13.753 -14.886  1.00  0.00     0.056 C 
HETATM    5  C   LIG     1     -21.672 -13.803 -14.575  1.00  0.00     0.013 C 
ENDROOT
BRANCH   1   6
HETATM    6  C   LIG     1     -22.752 -17.306 -13.638  1.00  0.00     0.012 C 
BRANCH   6   7
HETATM    7  C   LIG     1     -22.281 -17.851 -14.987  1.00  0.00     0.001 C 
BRANCH   7   8
HETATM    8  C   LIG     1     -23.301 -18.832 -15.574  1.00  0.00     0.006 C 
BRANCH   8   9
HETATM    9  C   LIG     1     -23.586 -20.050 -14.663  1.00  0.00     0.004 C 
HETATM   10  C   LIG     1     -25.087 -20.355 -14.583  1.00  0.00     0.012 C 
BRANCH   9  11
HETATM   11  C   LIG     1     -22.741 -21.272 -15.117  1.00  0.00     0.084 C 
HETATM   12  C   LIG     1     -21.328 -21.271 -14.538  1.00  0.00     0.032 C 
BRANCH  11  13
HETATM   13  N   LIG     1     -23.388 -22.531 -14.831  1.00  0.00    -0.357 N 
HETATM   14  C   LIG     1     -24.105 -23.245 -15.776  1.00  0.00     0.213 C 
HETATM   15  O   LIG     1     -24.285 -22.916 -16.945  1.00  0.00    -0.274 OA
HETATM   16  C   LIG     1     -24.653 -24.533 -15.222  1.00  0.00     0.117 C 
HETATM   17  H   LIG     1     -23.247 -22.946 -13.915  1.00  0.00     0.162 HD
ENDBRANCH  11  13
ENDBRANCH   9  11
ENDBRANCH   8   9
ENDBRANCH   7   8
ENDBRANCH   6   7
ENDBRANCH   1   6
BRANCH   1  18
HETATM   18  C   LIG     1     -22.913 -15.301 -12.155  1.00  0.00     0.179 C 
BRANCH  18  19
HETATM   19  O   LIG     1     -22.554 -16.356 -11.287  1.00  0.00    -0.365 OA
BRANCH  19  20
HETATM   20  C   LIG     1     -21.794 -15.894 -10.174  1.00  0.00     0.142 C 
BRANCH  20  21
HETATM   21  C   LIG     1     -20.419 -16.597 -10.225  1.00  0.00    -0.015 A 
HETATM   22  C   LIG     1     -19.930 -17.084 -11.437  1.00  0.00     0.011 A 
HETATM   23  C   LIG     1     -18.688 -17.719 -11.483  1.00  0.00     0.001 A 
HETATM   24  C   LIG     1     -17.937 -17.865 -10.318  1.00  0.00     0.000 A 
HETATM   25  C   LIG     1     -18.426 -17.378  -9.105  1.00  0.00     0.001 A 
HETATM   26  C   LIG     1     -19.667 -16.744  -9.060  1.00  0.00     0.011 A 
ENDBRANCH  20  21
BRANCH  20  27
HETATM   27  C   LIG     1     -21.711 -14.362 -10.353  1.00  0.00    -0.015 A 
HETATM   28  C   LIG     1     -22.700 -13.542  -9.811  1.00  0.00     0.011 A 
HETATM   29  C   LIG     1     -22.624 -12.158  -9.973  1.00  0.00     0.001 A 
HETATM   30  C   LIG     1     -21.559 -11.595 -10.675  1.00  0.00     0.000 A 
HETATM   31  C   LIG     1     -20.569 -12.416 -11.217  1.00  0.00     0.001 A 
HETATM   32  C   LIG     1     -20.645 -13.800 -11.056  1.00  0.00     0.011 A 
ENDBRANCH  20  27
BRANCH  20  33
HETATM   33  C   LIG     1     -22.624 -16.291  -8.933  1.00  0.00    -0.015 A 
HETATM   34  C   LIG     1     -23.944 -16.716  -9.082  1.00  0.00     0.011 A 
HETATM   35  C   LIG     1     -24.692 -17.075  -7.962  1.00  0.00     0.001 A 
HETATM   36  C   LIG     1     -24.122 -17.009  -6.691  1.00  0.00     0.000 A 
HETATM   37  C   LIG     1     -22.801 -16.584  -6.541  1.00  0.00     0.001 A 
HETATM   38  C   LIG     1     -22.052 -16.225  -7.662  1.00  0.00     0.011 A 
ENDBRANCH  20  33
ENDBRANCH  19  20
ENDBRANCH  18  19
ENDBRANCH   1  18
BRANCH   4  39
HETATM   39  C   LIG     1     -23.495 -13.323 -16.305  1.00  0.00     0.107 A 
HETATM   40  N   LIG     1     -23.669 -12.006 -16.628  1.00  0.00    -0.353 N 
HETATM   41  C   LIG     1     -23.937 -11.943 -17.965  1.00  0.00     0.109 A 
HETATM   42  H   LIG     1     -23.610 -11.219 -15.993  1.00  0.00     0.166 HD
HETATM   43  C   LIG     1     -23.911 -13.250 -18.391  1.00  0.00     0.135 A 
HETATM   44  N   LIG     1     -23.637 -14.104 -17.352  1.00  0.00    -0.246 NA
ENDBRANCH   4  39
TORSDOF 13
ENDMDL
MODEL 4
REMARK VINA RESULT:     -10.1      3.374      7.170
REMARK  13 active torsions:
REMARK  status: ('A' for Active; 'I' for Inactive)
REMARK    1  A    between atoms: O_1  and  C_12 
REMARK    2  A    between atoms: O_1  and  C_17 
REMARK    3  A    between atoms: N_5  and  C_18 
REMARK       I    between atoms: N_5  and  C_32 
REMARK    4  A    between atoms: C_6  and  C_11 
REMARK    5  A    between atoms: C_6  and  C_12 
REMARK    6  A    between atoms: C_9  and  C_14 
REMARK    7  A    between atoms: C_11  and  C_13 
REMARK    8  A    between atoms: C_13  and  C_15 
REMARK    9  A    between atoms: C_15  and  C_16 
REMARK   10  A    between atoms: C_16  and  C_18 
REMARK   11  A    between atoms: C_17  and  C_21 
REMARK   12  A    between atoms: C_17  and  C_22 
REMARK   13  A    between atoms: C_17  and  C_23 
ROOT
HETATM    1  C   LIG     1     -22.673 -15.831 -13.615  1.00  0.00    -0.018 C 
HETATM    2  C   LIG     1     -23.707 -15.227 -14.578  1.00  0.00     0.024 C 
HETATM    3  C   LIG     1     -21.355 -15.278 -14.175  1.00  0.00     0.012 C 
HETATM    4  C   LIG     1     -23.178 -13.817 -14.907  1.00  0.00     0.056 C 
HETATM    5  C   LIG     1     -21.673 -13.838 -14.579  1.00  0.00     0.013 C 
ENDROOT
BRANCH   1   6
HETATM    6  C   LIG     1     -22.696 -17.361 -13.652  1.00  0.00     0.012 C 
BRANCH   6   7
HETATM    7  C   LIG     1     -22.251 -17.896 -15.014  1.00  0.00     0.001 C 
BRANCH   7   8
HETATM    8  C   LIG     1     -23.283 -18.872 -15.590  1.00  0.00     0.006 C 
BRANCH   8   9
HETATM    9  C   LIG     1     -23.567 -20.086 -14.674  1.00  0.00     0.004 C 
HETATM   10  C   LIG     1     -25.069 -20.390 -14.590  1.00  0.00     0.012 C 
BRANCH   9  11
HETATM   11  C   LIG     1     -22.723 -21.309 -15.123  1.00  0.00     0.084 C 
HETATM   12  C   LIG     1     -21.311 -21.309 -14.544  1.00  0.00     0.032 C 
BRANCH  11  13
HETATM   13  N   LIG     1     -23.371 -22.567 -14.835  1.00  0.00    -0.357 N 
HETATM   14  C   LIG     1     -24.101 -23.277 -15.774  1.00  0.00     0.213 C 
HETATM   15  O   LIG     1     -24.291 -22.943 -16.941  1.00  0.00    -0.274 OA
HETATM   16  C   LIG     1     -24.648 -24.564 -15.218  1.00  0.00     0.117 C 
HETATM   17  H   LIG     1     -23.223 -22.985 -13.921  1.00  0.00     0.162 HD
ENDBRANCH  11  13
ENDBRANCH   9  11
ENDBRANCH   8   9
ENDBRANCH   7   8
ENDBRANCH   6   7
ENDBRANCH   1   6
BRANCH   1  18
HETATM   18  C   LIG     1     -22.913 -15.359 -12.172  1.00  0.00     0.179 C 
BRANCH  18  19
HETATM   19  O   LIG     1     -22.500 -16.389 -11.298  1.00  0.00    -0.365 OA
BRANCH  19  20
HETATM   20  C   LIG     1     -21.807 -15.877 -10.164  1.00  0.00     0.142 C 
BRANCH  20  21
HETATM   21  C   LIG     1     -21.684 -14.348 -10.344  1.00  0.00    -0.015 A 
HETATM   22  C   LIG     1     -20.641 -13.817 -11.103  1.00  0.00     0.011 A 
HETATM   23  C   LIG     1     -20.529 -12.436 -11.267  1.00  0.00     0.001 A 
HETATM   24  C   LIG     1     -21.461 -11.587 -10.671  1.00  0.00     0.000 A 
HETATM   25  C   LIG     1     -22.504 -12.117  -9.911  1.00  0.00     0.001 A 
HETATM   26  C   LIG     1     -22.615 -13.497  -9.749  1.00  0.00     0.011 A 
ENDBRANCH  20  21
BRANCH  20  27
HETATM   27  C   LIG     1     -22.667 -16.288  -8.949  1.00  0.00    -0.015 A 
HETATM   28  C   LIG     1     -22.123 -16.252  -7.665  1.00  0.00     0.011 A 
HETATM   29  C   LIG     1     -22.901 -16.623  -6.568  1.00  0.00     0.001 A 
HETATM   30  C   LIG     1     -24.222 -17.027  -6.754  1.00  0.00     0.000 A 
HETATM   31  C   LIG     1     -24.766 -17.062  -8.038  1.00  0.00     0.001 A 
HETATM   32  C   LIG     1     -23.989 -16.692  -9.135  1.00  0.00     0.011 A 
ENDBRANCH  20  27
BRANCH  20  33
HETATM   33  C   LIG     1     -20.438 -16.594 -10.177  1.00  0.00    -0.015 A 
HETATM   34  C   LIG     1     -19.667 -16.646  -9.017  1.00  0.00     0.011 A 
HETATM   35  C   LIG     1     -18.432 -17.294  -9.029  1.00  0.00     0.001 A 
HETATM   36  C   LIG     1     -17.967 -17.889 -10.202  1.00  0.00     0.000 A 
HETATM   37  C   LIG     1     -18.739 -17.836 -11.363  1.00  0.00     0.001 A 
HETATM   38  C   LIG     1     -19.974 -17.189 -11.351  1.00  0.00     0.011 A 
ENDBRANCH  20  33
ENDBRANCH  19  20
ENDBRANCH  18  19
ENDBRANCH   1  18
BRANCH   4  39
HETATM   39  C   LIG     1     -23.484 -13.393 -16.330  1.00  0.00     0.107 A 
HETATM   40  N   LIG     1     -23.635 -12.076 -16.664  1.00  0.00    -0.353 N 
HETATM   41  C   LIG     1     -23.901 -12.020 -18.003  1.00  0.00     0.109 A 
HETATM   42  H   LIG     1     -23.562 -11.286 -16.037  1.00  0.00     0.166 HD
HETATM   43  C   LIG     1     -23.899 -13.331 -18.416  1.00  0.00     0.135 A 
HETATM   44  N   LIG     1     -23.640 -14.181 -17.371  1.00  0.00    -0.246 NA
ENDBRANCH   4  39
TORSDOF 13
ENDMDL
MODEL 5
REMARK VINA RESULT:     -10.1      0.175      3.527
REMARK  13 active torsions:
REMARK  status: ('A' for Active; 'I' for Inactive)
REMARK    1  A    between atoms: O_1  and  C_12 
REMARK    2  A    between atoms: O_1  and  C_17 
REMARK    3  A    between atoms: N_5  and  C_18 
REMARK       I    between atoms: N_5  and  C_32 
REMARK    4  A    between atoms: C_6  and  C_11 
REMARK    5  A    between atoms: C_6  and  C_12 
REMARK    6  A    between atoms: C_9  and  C_14 
REMARK    7  A    between atoms: C_11  and  C_13 
REMARK    8  A    between atoms: C_13  and  C_15 
REMARK    9  A    between atoms: C_15  and  C_16 
REMARK   10  A    between atoms: C_16  and  C_18 
REMARK   11  A    between atoms: C_17  and  C_21 
REMARK   12  A    between atoms: C_17  and  C_22 
REMARK   13  A    between atoms: C_17  and  C_23 
ROOT
HETATM    1  C   LIG     1     -22.062 -15.104  -9.767  1.00  0.00    -0.018 C 
HETATM    2  C   LIG     1     -20.946 -14.419  -8.962  1.00  0.00     0.024 C 
HETATM    3  C   LIG     1     -23.311 -14.360  -9.273  1.00  0.00     0.012 C 
HETATM    4  C   LIG     1     -21.360 -12.937  -8.875  1.00  0.00     0.056 C 
HETATM    5  C   LIG     1     -22.876 -12.901  -9.145  1.00  0.00     0.013 C 
ENDROOT
BRANCH   1   6
HETATM    6  C   LIG     1     -22.143 -16.600  -9.456  1.00  0.00     0.012 C 
BRANCH   6   7
HETATM    7  C   LIG     1     -21.274 -16.970  -8.253  1.00  0.00     0.001 C 
BRANCH   7   8
HETATM    8  C   LIG     1     -20.810 -18.429  -8.333  1.00  0.00     0.006 C 
BRANCH   8   9
HETATM    9  C   LIG     1     -19.609 -18.647  -9.284  1.00  0.00     0.004 C 
HETATM   10  C   LIG     1     -18.700 -17.412  -9.335  1.00  0.00     0.012 C 
BRANCH   9  11
HETATM   11  C   LIG     1     -18.849 -19.946  -8.904  1.00  0.00     0.084 C 
HETATM   12  C   LIG     1     -19.068 -20.365  -7.452  1.00  0.00     0.032 C 
BRANCH  11  13
HETATM   13  N   LIG     1     -19.158 -21.048  -9.784  1.00  0.00    -0.357 N 
HETATM   14  C   LIG     1     -19.159 -20.938 -11.165  1.00  0.00     0.213 C 
HETATM   15  O   LIG     1     -18.907 -19.922 -11.807  1.00  0.00    -0.274 OA
HETATM   16  C   LIG     1     -19.490 -22.242 -11.841  1.00  0.00     0.117 C 
HETATM   17  H   LIG     1     -19.310 -21.964  -9.372  1.00  0.00     0.162 HD
ENDBRANCH  11  13
ENDBRANCH   9  11
ENDBRANCH   8   9
ENDBRANCH   7   8
ENDBRANCH   6   7
ENDBRANCH   1   6
BRANCH   1  18
HETATM   18  C   LIG     1     -21.856 -14.914 -11.278  1.00  0.00     0.179 C 
BRANCH  18  19
HETATM   19  O   LIG     1     -22.739 -15.785 -11.954  1.00  0.00    -0.365 OA
BRANCH  19  20
HETATM   20  C   LIG     1     -22.463 -15.842 -13.351  1.00  0.00     0.142 C 
BRANCH  20  21
HETATM   21  C   LIG     1     -23.120 -14.606 -14.005  1.00  0.00    -0.015 A 
HETATM   22  C   LIG     1     -23.111 -13.379 -13.342  1.00  0.00     0.011 A 
HETATM   23  C   LIG     1     -23.704 -12.262 -13.933  1.00  0.00     0.001 A 
HETATM   24  C   LIG     1     -24.304 -12.373 -15.187  1.00  0.00     0.000 A 
HETATM   25  C   LIG     1     -24.313 -13.601 -15.850  1.00  0.00     0.001 A 
HETATM   26  C   LIG     1     -23.721 -14.716 -15.259  1.00  0.00     0.011 A 
ENDBRANCH  20  21
BRANCH  20  27
HETATM   27  C   LIG     1     -20.923 -15.850 -13.456  1.00  0.00    -0.015 A 
HETATM   28  C   LIG     1     -20.186 -16.859 -12.834  1.00  0.00     0.011 A 
HETATM   29  C   LIG     1     -18.795 -16.866 -12.930  1.00  0.00     0.001 A 
HETATM   30  C   LIG     1     -18.140 -15.866 -13.648  1.00  0.00     0.000 A 
HETATM   31  C   LIG     1     -18.876 -14.858 -14.271  1.00  0.00     0.001 A 
HETATM   32  C   LIG     1     -20.268 -14.850 -14.175  1.00  0.00     0.011 A 
ENDBRANCH  20  27
BRANCH  20  33
HETATM   33  C   LIG     1     -23.087 -17.173 -13.826  1.00  0.00    -0.015 A 
HETATM   34  C   LIG     1     -22.376 -18.009 -14.686  1.00  0.00     0.011 A 
HETATM   35  C   LIG     1     -22.939 -19.211 -15.114  1.00  0.00     0.001 A 
HETATM   36  C   LIG     1     -24.214 -19.577 -14.683  1.00  0.00     0.000 A 
HETATM   37  C   LIG     1     -24.926 -18.740 -13.823  1.00  0.00     0.001 A 
HETATM   38  C   LIG     1     -24.363 -17.539 -13.394  1.00  0.00     0.011 A 
ENDBRANCH  20  33
ENDBRANCH  19  20
ENDBRANCH  18  19
ENDBRANCH   1  18
BRANCH   4  39
HETATM   39  C   LIG     1     -20.960 -12.292  -7.563  1.00  0.00     0.107 A 
HETATM   40  N   LIG     1     -21.896 -11.815  -6.689  1.00  0.00    -0.353 N 
HETATM   41  C   LIG     1     -21.230 -11.300  -5.614  1.00  0.00     0.109 A 
HETATM   42  H   LIG     1     -22.901 -11.838  -6.813  1.00  0.00     0.166 HD
HETATM   43  C   LIG     1     -19.899 -11.496  -5.899  1.00  0.00     0.135 A 
HETATM   44  N   LIG     1     -19.737 -12.113  -7.114  1.00  0.00    -0.246 NA
ENDBRANCH   4  39
TORSDOF 13
ENDMDL
MODEL 6
REMARK VINA RESULT:     -10.0      0.119      3.476
REMARK  13 active torsions:
REMARK  status: ('A' for Active; 'I' for Inactive)
REMARK    1  A    between atoms: O_1  and  C_12 
REMARK    2  A    between atoms: O_1  and  C_17 
REMARK    3  A    between atoms: N_5  and  C_18 
REMARK       I    between atoms: N_5  and  C_32 
REMARK    4  A    between atoms: C_6  and  C_11 
REMARK    5  A    between atoms: C_6  and  C_12 
REMARK    6  A    between atoms: C_9  and  C_14 
REMARK    7  A    between atoms: C_11  and  C_13 
REMARK    8  A    between atoms: C_13  and  C_15 
REMARK    9  A    between atoms: C_15  and  C_16 
REMARK   10  A    between atoms: C_16  and  C_18 
REMARK   11  A    between atoms: C_17  and  C_21 
REMARK   12  A    between atoms: C_17  and  C_22 
REMARK   13  A    between atoms: C_17  and  C_23 
ROOT
HETATM    1  C   LIG     1     -21.996 -15.248  -9.553  1.00  0.00    -0.018 C 
HETATM    2  C   LIG     1     -20.911 -14.593  -8.684  1.00  0.00     0.024 C 
HETATM    3  C   LIG     1     -23.202 -14.334  -9.295  1.00  0.00     0.012 C 
HETATM    4  C   LIG     1     -21.163 -13.077  -8.794  1.00  0.00     0.056 C 
HETATM    5  C   LIG     1     -22.624 -12.920  -9.255  1.00  0.00     0.013 C 
ENDROOT
BRANCH   1   6
HETATM    6  C   LIG     1     -22.280 -16.685  -9.112  1.00  0.00     0.012 C 
BRANCH   6   7
HETATM    7  C   LIG     1     -21.338 -17.123  -7.989  1.00  0.00     0.001 C 
BRANCH   7   8
HETATM    8  C   LIG     1     -20.873 -18.570  -8.188  1.00  0.00     0.006 C 
BRANCH   8   9
HETATM    9  C   LIG     1     -19.714 -18.714  -9.203  1.00  0.00     0.004 C 
HETATM   10  C   LIG     1     -18.879 -17.430  -9.291  1.00  0.00     0.012 C 
BRANCH   9  11
HETATM   11  C   LIG     1     -18.863 -19.971  -8.874  1.00  0.00     0.084 C 
HETATM   12  C   LIG     1     -19.009 -20.431  -7.425  1.00  0.00     0.032 C 
BRANCH  11  13
HETATM   13  N   LIG     1     -19.131 -21.073  -9.768  1.00  0.00    -0.357 N 
HETATM   14  C   LIG     1     -19.117 -20.950 -11.147  1.00  0.00     0.213 C 
HETATM   15  O   LIG     1     -18.883 -19.921 -11.777  1.00  0.00    -0.274 OA
HETATM   16  C   LIG     1     -19.403 -22.255 -11.839  1.00  0.00     0.117 C 
HETATM   17  H   LIG     1     -19.263 -21.996  -9.365  1.00  0.00     0.162 HD
ENDBRANCH  11  13
ENDBRANCH   9  11
ENDBRANCH   8   9
ENDBRANCH   7   8
ENDBRANCH   6   7
ENDBRANCH   1   6
BRANCH   1  18
HETATM   18  C   LIG     1     -21.598 -15.246 -11.038  1.00  0.00     0.179 C 
BRANCH  18  19
HETATM   19  O   LIG     1     -22.697 -15.719 -11.788  1.00  0.00    -0.365 OA
BRANCH  19  20
HETATM   20  C   LIG     1     -22.406 -15.771 -13.182  1.00  0.00     0.142 C 
BRANCH  20  21
HETATM   21  C   LIG     1     -23.012 -17.080 -13.736  1.00  0.00    -0.015 A 
HETATM   22  C   LIG     1     -24.282 -17.488 -13.326  1.00  0.00     0.011 A 
HETATM   23  C   LIG     1     -24.830 -18.670 -13.827  1.00  0.00     0.001 A 
HETATM   24  C   LIG     1     -24.108 -19.442 -14.736  1.00  0.00     0.000 A 
HETATM   25  C   LIG     1     -22.838 -19.033 -15.146  1.00  0.00     0.001 A 
HETATM   26  C   LIG     1     -22.291 -17.853 -14.645  1.00  0.00     0.011 A 
ENDBRANCH  20  21
BRANCH  20  27
HETATM   27  C   LIG     1     -23.046 -14.496 -13.773  1.00  0.00    -0.015 A 
HETATM   28  C   LIG     1     -23.104 -13.328 -13.012  1.00  0.00     0.011 A 
HETATM   29  C   LIG     1     -23.683 -12.176 -13.547  1.00  0.00     0.001 A 
HETATM   30  C   LIG     1     -24.201 -12.192 -14.841  1.00  0.00     0.000 A 
HETATM   31  C   LIG     1     -24.142 -13.360 -15.601  1.00  0.00     0.001 A 
HETATM   32  C   LIG     1     -23.564 -14.512 -15.068  1.00  0.00     0.011 A 
ENDBRANCH  20  27
BRANCH  20  33
HETATM   33  C   LIG     1     -20.864 -15.742 -13.268  1.00  0.00    -0.015 A 
HETATM   34  C   LIG     1     -20.218 -14.658 -13.861  1.00  0.00     0.011 A 
HETATM   35  C   LIG     1     -18.826 -14.632 -13.938  1.00  0.00     0.001 A 
HETATM   36  C   LIG     1     -18.078 -15.691 -13.423  1.00  0.00     0.000 A 
HETATM   37  C   LIG     1     -18.725 -16.776 -12.830  1.00  0.00     0.001 A 
HETATM   38  C   LIG     1     -20.116 -16.802 -12.753  1.00  0.00     0.011 A 
ENDBRANCH  20  33
ENDBRANCH  19  20
ENDBRANCH  18  19
ENDBRANCH   1  18
BRANCH   4  39
HETATM   39  C   LIG     1     -20.847 -12.336  -7.510  1.00  0.00     0.107 A 
HETATM   40  N   LIG     1     -21.837 -11.941  -6.653  1.00  0.00    -0.353 N 
HETATM   41  C   LIG     1     -21.240 -11.306  -5.602  1.00  0.00     0.109 A 
HETATM   42  H   LIG     1     -22.830 -12.091  -6.774  1.00  0.00     0.166 HD
HETATM   43  C   LIG     1     -19.895 -11.349  -5.882  1.00  0.00     0.135 A 
HETATM   44  N   LIG     1     -19.657 -11.991  -7.072  1.00  0.00    -0.246 NA
ENDBRANCH   4  39
TORSDOF 13
ENDMDL
MODEL 7
REMARK VINA RESULT:      -9.9      3.195      7.064
REMARK  13 active torsions:
REMARK  status: ('A' for Active; 'I' for Inactive)
REMARK    1  A    between atoms: O_1  and  C_12 
REMARK    2  A    between atoms: O_1  and  C_17 
REMARK    3  A    between atoms: N_5  and  C_18 
REMARK       I    between atoms: N_5  and  C_32 
REMARK    4  A    between atoms: C_6  and  C_11 
REMARK    5  A    between atoms: C_6  and  C_12 
REMARK    6  A    between atoms: C_9  and  C_14 
REMARK    7  A    between atoms: C_11  and  C_13 
REMARK    8  A    between atoms: C_13  and  C_15 
REMARK    9  A    between atoms: C_15  and  C_16 
REMARK   10  A    between atoms: C_16  and  C_18 
REMARK   11  A    between atoms: C_17  and  C_21 
REMARK   12  A    between atoms: C_17  and  C_22 
REMARK   13  A    between atoms: C_17  and  C_23 
ROOT
HETATM    1  C   LIG     1     -22.664 -15.870 -13.740  1.00  0.00    -0.018 C 
HETATM    2  C   LIG     1     -23.702 -15.275 -14.706  1.00  0.00     0.024 C 
HETATM    3  C   LIG     1     -21.357 -15.259 -14.264  1.00  0.00     0.012 C 
HETATM    4  C   LIG     1     -23.215 -13.842 -14.992  1.00  0.00     0.056 C 
HETATM    5  C   LIG     1     -21.716 -13.821 -14.638  1.00  0.00     0.013 C 
ENDROOT
BRANCH   1   6
HETATM    6  C   LIG     1     -22.636 -17.398 -13.815  1.00  0.00     0.012 C 
BRANCH   6   7
HETATM    7  C   LIG     1     -23.845 -17.944 -14.577  1.00  0.00     0.001 C 
BRANCH   7   8
HETATM    8  C   LIG     1     -23.442 -19.102 -15.497  1.00  0.00     0.006 C 
BRANCH   8   9
HETATM    9  C   LIG     1     -24.259 -20.395 -15.261  1.00  0.00     0.004 C 
HETATM   10  C   LIG     1     -25.122 -20.746 -16.481  1.00  0.00     0.012 C 
BRANCH   9  11
HETATM   11  C   LIG     1     -23.322 -21.553 -14.825  1.00  0.00     0.084 C 
HETATM   12  C   LIG     1     -23.709 -22.899 -15.433  1.00  0.00     0.032 C 
BRANCH  11  13
HETATM   13  N   LIG     1     -21.931 -21.274 -15.097  1.00  0.00    -0.357 N 
HETATM   14  C   LIG     1     -20.919 -21.507 -14.181  1.00  0.00     0.213 C 
HETATM   15  O   LIG     1     -21.061 -21.968 -13.051  1.00  0.00    -0.274 OA
HETATM   16  C   LIG     1     -19.562 -21.152 -14.728  1.00  0.00     0.117 C 
HETATM   17  H   LIG     1     -21.678 -20.960 -16.029  1.00  0.00     0.162 HD
ENDBRANCH  11  13
ENDBRANCH   9  11
ENDBRANCH   8   9
ENDBRANCH   7   8
ENDBRANCH   6   7
ENDBRANCH   1   6
BRANCH   1  18
HETATM   18  C   LIG     1     -22.943 -15.441 -12.291  1.00  0.00     0.179 C 
BRANCH  18  19
HETATM   19  O   LIG     1     -22.451 -16.449 -11.432  1.00  0.00    -0.365 OA
BRANCH  19  20
HETATM   20  C   LIG     1     -21.779 -15.903 -10.302  1.00  0.00     0.142 C 
BRANCH  20  21
HETATM   21  C   LIG     1     -21.661 -14.378 -10.523  1.00  0.00    -0.015 A 
HETATM   22  C   LIG     1     -22.655 -13.525 -10.043  1.00  0.00     0.011 A 
HETATM   23  C   LIG     1     -22.548 -12.148 -10.241  1.00  0.00     0.001 A 
HETATM   24  C   LIG     1     -21.448 -11.625 -10.920  1.00  0.00     0.000 A 
HETATM   25  C   LIG     1     -20.454 -12.478 -11.400  1.00  0.00     0.001 A 
HETATM   26  C   LIG     1     -20.561 -13.854 -11.201  1.00  0.00     0.011 A 
ENDBRANCH  20  21
BRANCH  20  27
HETATM   27  C   LIG     1     -22.655 -16.285  -9.090  1.00  0.00    -0.015 A 
HETATM   28  C   LIG     1     -22.158 -16.136  -7.795  1.00  0.00     0.011 A 
HETATM   29  C   LIG     1     -22.951 -16.481  -6.700  1.00  0.00     0.001 A 
HETATM   30  C   LIG     1     -24.240 -16.973  -6.899  1.00  0.00     0.000 A 
HETATM   31  C   LIG     1     -24.737 -17.121  -8.194  1.00  0.00     0.001 A 
HETATM   32  C   LIG     1     -23.945 -16.777  -9.290  1.00  0.00     0.011 A 
ENDBRANCH  20  27
BRANCH  20  33
HETATM   33  C   LIG     1     -20.406 -16.611 -10.275  1.00  0.00    -0.015 A 
HETATM   34  C   LIG     1     -19.694 -16.709  -9.079  1.00  0.00     0.011 A 
HETATM   35  C   LIG     1     -18.456 -17.348  -9.054  1.00  0.00     0.001 A 
HETATM   36  C   LIG     1     -17.927 -17.892 -10.225  1.00  0.00     0.000 A 
HETATM   37  C   LIG     1     -18.639 -17.795 -11.422  1.00  0.00     0.001 A 
HETATM   38  C   LIG     1     -19.878 -17.155 -11.446  1.00  0.00     0.011 A 
ENDBRANCH  20  33
ENDBRANCH  19  20
ENDBRANCH  18  19
ENDBRANCH   1  18
BRANCH   4  39
HETATM   39  C   LIG     1     -23.512 -13.392 -16.409  1.00  0.00     0.107 A 
HETATM   40  N   LIG     1     -23.699 -12.073 -16.713  1.00  0.00    -0.353 N 
HETATM   41  C   LIG     1     -23.946 -11.992 -18.054  1.00  0.00     0.109 A 
HETATM   42  H   LIG     1     -23.662 -11.296 -16.065  1.00  0.00     0.166 HD
HETATM   43  C   LIG     1     -23.895 -13.292 -18.499  1.00  0.00     0.135 A 
HETATM   44  N   LIG     1     -23.625 -14.159 -17.470  1.00  0.00    -0.246 NA
ENDBRANCH   4  39
TORSDOF 13
ENDMDL
MODEL 8
REMARK VINA RESULT:      -9.8      3.236      7.096
REMARK  13 active torsions:
REMARK  status: ('A' for Active; 'I' for Inactive)
REMARK    1  A    between atoms: O_1  and  C_12 
REMARK    2  A    between atoms: O_1  and  C_17 
REMARK    3  A    between atoms: N_5  and  C_18 
REMARK       I    between atoms: N_5  and  C_32 
REMARK    4  A    between atoms: C_6  and  C_11 
REMARK    5  A    between atoms: C_6  and  C_12 
REMARK    6  A    between atoms: C_9  and  C_14 
REMARK    7  A    between atoms: C_11  and  C_13 
REMARK    8  A    between atoms: C_13  and  C_15 
REMARK    9  A    between atoms: C_15  and  C_16 
REMARK   10  A    between atoms: C_16  and  C_18 
REMARK   11  A    between atoms: C_17  and  C_21 
REMARK   12  A    between atoms: C_17  and  C_22 
REMARK   13  A    between atoms: C_17  and  C_23 
ROOT
HETATM    1  C   LIG     1     -22.656 -15.945 -13.716  1.00  0.00    -0.018 C 
HETATM    2  C   LIG     1     -23.690 -15.318 -14.664  1.00  0.00     0.024 C 
HETATM    3  C   LIG     1     -21.331 -15.514 -14.360  1.00  0.00     0.012 C 
HETATM    4  C   LIG     1     -23.082 -13.968 -15.091  1.00  0.00     0.056 C 
HETATM    5  C   LIG     1     -21.569 -14.078 -14.827  1.00  0.00     0.013 C 
ENDROOT
BRANCH   1   6
HETATM    6  C   LIG     1     -22.785 -17.469 -13.670  1.00  0.00     0.012 C 
BRANCH   6   7
HETATM    7  C   LIG     1     -23.953 -17.959 -14.528  1.00  0.00     0.001 C 
BRANCH   7   8
HETATM    8  C   LIG     1     -23.511 -19.076 -15.479  1.00  0.00     0.006 C 
BRANCH   8   9
HETATM    9  C   LIG     1     -24.317 -20.387 -15.313  1.00  0.00     0.004 C 
HETATM   10  C   LIG     1     -25.124 -20.716 -16.575  1.00  0.00     0.012 C 
BRANCH   9  11
HETATM   11  C   LIG     1     -23.380 -21.544 -14.872  1.00  0.00     0.084 C 
HETATM   12  C   LIG     1     -23.741 -22.884 -15.507  1.00  0.00     0.032 C 
BRANCH  11  13
HETATM   13  N   LIG     1     -21.986 -21.249 -15.106  1.00  0.00    -0.357 N 
HETATM   14  C   LIG     1     -20.985 -21.544 -14.196  1.00  0.00     0.213 C 
HETATM   15  O   LIG     1     -21.142 -22.078 -13.101  1.00  0.00    -0.274 OA
HETATM   16  C   LIG     1     -19.622 -21.156 -14.701  1.00  0.00     0.117 C 
HETATM   17  H   LIG     1     -21.721 -20.875 -16.012  1.00  0.00     0.162 HD
ENDBRANCH  11  13
ENDBRANCH   9  11
ENDBRANCH   8   9
ENDBRANCH   7   8
ENDBRANCH   6   7
ENDBRANCH   1   6
BRANCH   1  18
HETATM   18  C   LIG     1     -22.795 -15.385 -12.291  1.00  0.00     0.179 C 
BRANCH  18  19
HETATM   19  O   LIG     1     -22.494 -16.421 -11.380  1.00  0.00    -0.365 OA
BRANCH  19  20
HETATM   20  C   LIG     1     -21.773 -15.941 -10.249  1.00  0.00     0.142 C 
BRANCH  20  21
HETATM   21  C   LIG     1     -20.398 -16.647 -10.241  1.00  0.00    -0.015 A 
HETATM   22  C   LIG     1     -19.658 -16.718  -9.061  1.00  0.00     0.011 A 
HETATM   23  C   LIG     1     -18.417 -17.356  -9.053  1.00  0.00     0.001 A 
HETATM   24  C   LIG     1     -17.917 -17.923 -10.224  1.00  0.00     0.000 A 
HETATM   25  C   LIG     1     -18.658 -17.852 -11.405  1.00  0.00     0.001 A 
HETATM   26  C   LIG     1     -19.897 -17.214 -11.412  1.00  0.00     0.011 A 
ENDBRANCH  20  21
BRANCH  20  27
HETATM   27  C   LIG     1     -21.680 -14.413 -10.451  1.00  0.00    -0.015 A 
HETATM   28  C   LIG     1     -22.642 -13.576  -9.887  1.00  0.00     0.011 A 
HETATM   29  C   LIG     1     -22.558 -12.195 -10.069  1.00  0.00     0.001 A 
HETATM   30  C   LIG     1     -21.511 -11.652 -10.813  1.00  0.00     0.000 A 
HETATM   31  C   LIG     1     -20.548 -12.490 -11.376  1.00  0.00     0.001 A 
HETATM   32  C   LIG     1     -20.632 -13.871 -11.195  1.00  0.00     0.011 A 
ENDBRANCH  20  27
BRANCH  20  33
HETATM   33  C   LIG     1     -22.646 -16.317  -9.031  1.00  0.00    -0.015 A 
HETATM   34  C   LIG     1     -23.953 -16.763  -9.221  1.00  0.00     0.011 A 
HETATM   35  C   LIG     1     -24.741 -17.103  -8.121  1.00  0.00     0.001 A 
HETATM   36  C   LIG     1     -24.222 -16.995  -6.831  1.00  0.00     0.000 A 
HETATM   37  C   LIG     1     -22.913 -16.548  -6.641  1.00  0.00     0.001 A 
HETATM   38  C   LIG     1     -22.126 -16.209  -7.741  1.00  0.00     0.011 A 
ENDBRANCH  20  33
ENDBRANCH  19  20
ENDBRANCH  18  19
ENDBRANCH   1  18
BRANCH   4  39
HETATM   39  C   LIG     1     -23.425 -13.595 -16.520  1.00  0.00     0.107 A 
HETATM   40  N   LIG     1     -23.349 -14.511 -17.532  1.00  0.00    -0.353 N 
HETATM   41  C   LIG     1     -23.716 -13.878 -18.686  1.00  0.00     0.109 A 
HETATM   42  H   LIG     1     -23.073 -15.480 -17.446  1.00  0.00     0.166 HD
HETATM   43  C   LIG     1     -23.999 -12.588 -18.304  1.00  0.00     0.135 A 
HETATM   44  N   LIG     1     -23.815 -12.418 -16.955  1.00  0.00    -0.246 NA
ENDBRANCH   4  39
TORSDOF 13
ENDMDL
MODEL 9
REMARK VINA RESULT:      -9.8      3.095      8.453
REMARK  13 active torsions:
REMARK  status: ('A' for Active; 'I' for Inactive)
REMARK    1  A    between atoms: O_1  and  C_12 
REMARK    2  A    between atoms: O_1  and  C_17 
REMARK    3  A    between atoms: N_5  and  C_18 
REMARK       I    between atoms: N_5  and  C_32 
REMARK    4  A    between atoms: C_6  and  C_11 
REMARK    5  A    between atoms: C_6  and  C_12 
REMARK    6  A    between atoms: C_9  and  C_14 
REMARK    7  A    between atoms: C_11  and  C_13 
REMARK    8  A    between atoms: C_13  and  C_15 
REMARK    9  A    between atoms: C_15  and  C_16 
REMARK   10  A    between atoms: C_16  and  C_18 
REMARK   11  A    between atoms: C_17  and  C_21 
REMARK   12  A    between atoms: C_17  and  C_22 
REMARK   13  A    between atoms: C_17  and  C_23 
ROOT
HETATM    1  C   LIG     1     -23.707 -17.250 -14.408  1.00  0.00    -0.018 C 
HETATM    2  C   LIG     1     -23.202 -18.484 -15.173  1.00  0.00     0.024 C 
HETATM    3  C   LIG     1     -25.132 -17.675 -14.025  1.00  0.00     0.012 C 
HETATM    4  C   LIG     1     -23.810 -19.694 -14.438  1.00  0.00     0.056 C 
HETATM    5  C   LIG     1     -25.013 -19.151 -13.645  1.00  0.00     0.013 C 
ENDROOT
BRANCH   1   6
HETATM    6  C   LIG     1     -23.715 -16.003 -15.294  1.00  0.00     0.012 C 
BRANCH   6   7
HETATM    7  C   LIG     1     -25.124 -15.679 -15.793  1.00  0.00     0.001 C 
BRANCH   7   8
HETATM    8  C   LIG     1     -25.159 -14.329 -16.517  1.00  0.00     0.006 C 
BRANCH   8   9
HETATM    9  C   LIG     1     -23.789 -13.901 -17.097  1.00  0.00     0.004 C 
HETATM   10  C   LIG     1     -23.749 -14.062 -18.623  1.00  0.00     0.012 C 
BRANCH   9  11
HETATM   11  C   LIG     1     -23.430 -12.466 -16.628  1.00  0.00     0.084 C 
HETATM   12  C   LIG     1     -24.026 -11.377 -17.517  1.00  0.00     0.032 C 
BRANCH  11  13
HETATM   13  N   LIG     1     -23.789 -12.225 -15.250  1.00  0.00    -0.357 N 
HETATM   14  C   LIG     1     -23.002 -12.622 -14.182  1.00  0.00     0.213 C 
HETATM   15  O   LIG     1     -21.928 -13.213 -14.258  1.00  0.00    -0.274 OA
HETATM   16  C   LIG     1     -23.597 -12.225 -12.857  1.00  0.00     0.117 C 
HETATM   17  H   LIG     1     -24.621 -11.676 -15.060  1.00  0.00     0.162 HD
ENDBRANCH  11  13
ENDBRANCH   9  11
ENDBRANCH   8   9
ENDBRANCH   7   8
ENDBRANCH   6   7
ENDBRANCH   1   6
BRANCH   1  18
HETATM   18  C   LIG     1     -22.849 -16.978 -13.162  1.00  0.00     0.179 C 
BRANCH  18  19
HETATM   19  O   LIG     1     -21.575 -16.544 -13.592  1.00  0.00    -0.365 OA
BRANCH  19  20
HETATM   20  C   LIG     1     -20.613 -16.597 -12.543  1.00  0.00     0.142 C 
BRANCH  20  21
HETATM   21  C   LIG     1     -21.325 -16.176 -11.237  1.00  0.00    -0.015 A 
HETATM   22  C   LIG     1     -21.031 -16.830 -10.041  1.00  0.00     0.011 A 
HETATM   23  C   LIG     1     -21.673 -16.450  -8.862  1.00  0.00     0.001 A 
HETATM   24  C   LIG     1     -22.608 -15.417  -8.880  1.00  0.00     0.000 A 
HETATM   25  C   LIG     1     -22.903 -14.762 -10.077  1.00  0.00     0.001 A 
HETATM   26  C   LIG     1     -22.261 -15.143 -11.254  1.00  0.00     0.011 A 
ENDBRANCH  20  21
BRANCH  20  27
HETATM   27  C   LIG     1     -20.114 -18.058 -12.530  1.00  0.00    -0.015 A 
HETATM   28  C   LIG     1     -20.270 -18.859 -13.661  1.00  0.00     0.011 A 
HETATM   29  C   LIG     1     -19.819 -20.179 -13.649  1.00  0.00     0.001 A 
HETATM   30  C   LIG     1     -19.210 -20.697 -12.506  1.00  0.00     0.000 A 
HETATM   31  C   LIG     1     -19.052 -19.895 -11.375  1.00  0.00     0.001 A 
HETATM   32  C   LIG     1     -19.504 -18.576 -11.387  1.00  0.00     0.011 A 
ENDBRANCH  20  27
BRANCH  20  33
HETATM   33  C   LIG     1     -19.506 -15.606 -12.967  1.00  0.00    -0.015 A 
HETATM   34  C   LIG     1     -18.480 -16.027 -13.812  1.00  0.00     0.011 A 
HETATM   35  C   LIG     1     -17.481 -15.132 -14.195  1.00  0.00     0.001 A 
HETATM   36  C   LIG     1     -17.508 -13.816 -13.733  1.00  0.00     0.000 A 
HETATM   37  C   LIG     1     -18.536 -13.395 -12.888  1.00  0.00     0.001 A 
HETATM   38  C   LIG     1     -19.534 -14.290 -12.505  1.00  0.00     0.011 A 
ENDBRANCH  20  33
ENDBRANCH  19  20
ENDBRANCH  18  19
ENDBRANCH   1  18
BRANCH   4  39
HETATM   39  C   LIG     1     -24.162 -20.833 -15.374  1.00  0.00     0.107 A 
HETATM   40  N   LIG     1     -24.938 -20.630 -16.481  1.00  0.00    -0.353 N 
HETATM   41  C   LIG     1     -25.074 -21.834 -17.112  1.00  0.00     0.109 A 
HETATM   42  H   LIG     1     -25.339 -19.751 -16.781  1.00  0.00     0.166 HD
HETATM   43  C   LIG     1     -24.361 -22.719 -16.339  1.00  0.00     0.135 A 
HETATM   44  N   LIG     1     -23.796 -22.090 -15.257  1.00  0.00    -0.246 NA
ENDBRANCH   4  39
TORSDOF 13
ENDMDL
