MODEL 1
REMARK VINA RESULT:      -9.0      0.000      0.000
REMARK  3 active torsions:
REMARK  status: ('A' for Active; 'I' for Inactive)
REMARK    1  A    between atoms: C_4  and  O_11 
REMARK    2  A    between atoms: O_11  and  C_12 
REMARK    3  A    between atoms: C_12  and  C_13 
ROOT
HETATM    1  N   LIG     1     -23.678 -23.993 -15.181  1.00  0.00    -0.244 NA
HETATM    2  C   LIG     1     -24.697 -21.832 -15.491  1.00  0.00     0.018 A 
HETATM    3  C   LIG     1     -23.596 -22.649 -15.161  1.00  0.00     0.083 A 
HETATM    4  C   LIG     1     -22.280 -20.637 -14.780  1.00  0.00     0.096 A 
HETATM    5  C   LIG     1     -22.400 -22.028 -14.810  1.00  0.00     0.043 A 
HETATM    6  C   LIG     1     -24.576 -20.432 -15.459  1.00  0.00     0.004 A 
HETATM    7  C   LIG     1     -23.369 -19.838 -15.105  1.00  0.00     0.024 A 
HETATM    8  C   LIG     1     -25.901 -22.456 -15.844  1.00  0.00     0.003 A 
HETATM    9  C   LIG     1     -25.988 -23.841 -15.865  1.00  0.00     0.021 A 
HETATM   10  C   LIG     1     -24.857 -24.557 -15.528  1.00  0.00     0.099 A 
ENDROOT
BRANCH   4  11
HETATM   11  O   LIG     1     -21.095 -20.064 -14.430  1.00  0.00    -0.326 OA
BRANCH  11  12
HETATM   12  C   LIG     1     -19.982 -20.936 -14.246  1.00  0.00     0.175 C 
BRANCH  12  13
HETATM   13  C   LIG     1     -19.573 -20.910 -12.802  1.00  0.00     0.008 A 
HETATM   14  C   LIG     1     -19.383 -22.107 -12.119  1.00  0.00    -0.002 A 
HETATM   15  C   LIG     1     -19.004 -22.082 -10.777  1.00  0.00    -0.000 A 
HETATM   16  C   LIG     1     -18.816 -20.862 -10.127  1.00  0.00    -0.000 A 
HETATM   17  C   LIG     1     -19.008 -19.667 -10.819  1.00  0.00    -0.000 A 
HETATM   18  C   LIG     1     -19.388 -19.691 -12.161  1.00  0.00    -0.002 A 
ENDBRANCH  12  13
ENDBRANCH  11  12
ENDBRANCH   4  11
TORSDOF 3
ENDMDL
