MODEL 1
REMARK VINA RESULT:      -9.5      0.000      0.000
REMARK  1 active torsions:
REMARK  status: ('A' for Active; 'I' for Inactive)
REMARK    1  A    between atoms: O_4  and  C_17 
ROOT
HETATM    1  O   LIG     1     -23.117 -23.382 -14.990  1.00  0.00    -0.318 OA
HETATM    2  O   LIG     1     -24.573 -24.124 -16.731  1.00  0.00    -0.331 OA
HETATM    3  O   LIG     1     -24.834 -19.025 -15.485  1.00  0.00    -0.273 OA
HETATM    4  O   LIG     1     -23.764 -14.738 -15.072  1.00  0.00    -0.292 OA
HETATM    5  O   LIG     1     -25.706 -16.917 -15.745  1.00  0.00    -0.259 OA
HETATM    6  C   LIG     1     -25.068 -22.025 -15.606  1.00  0.00     0.105 A 
HETATM    7  C   LIG     1     -23.894 -21.217 -15.215  1.00  0.00     0.023 A 
HETATM    8  C   LIG     1     -24.488 -23.450 -15.453  1.00  0.00     0.284 A 
HETATM    9  C   LIG     1     -23.736 -19.844 -15.141  1.00  0.00     0.103 A 
HETATM   10  C   LIG     1     -22.516 -19.293 -14.730  1.00  0.00     0.039 A 
HETATM   11  C   LIG     1     -22.839 -22.046 -14.876  1.00  0.00     0.084 A 
HETATM   12  C   LIG     1     -22.416 -17.842 -14.675  1.00  0.00    -0.022 A 
HETATM   13  C   LIG     1     -21.201 -17.079 -14.263  1.00  0.00     0.048 A 
HETATM   14  C   LIG     1     -25.420 -22.005 -17.042  1.00  0.00     0.012 A 
HETATM   15  C   LIG     1     -23.472 -17.098 -15.011  1.00  0.00     0.092 A 
HETATM   16  C   LIG     1     -21.457 -20.156 -14.393  1.00  0.00     0.084 A 
HETATM   17  C   LIG     1     -21.620 -15.615 -14.377  1.00  0.00     0.089 A 
HETATM   18  C   LIG     1     -21.617 -21.545 -14.464  1.00  0.00     0.075 A 
HETATM   19  C   LIG     1     -23.045 -15.701 -14.848  1.00  0.00     0.166 A 
HETATM   20  C   LIG     1     -25.130 -23.186 -17.571  1.00  0.00     0.135 A 
HETATM   21  C   LIG     1     -24.761 -17.633 -15.442  1.00  0.00     0.302 A 
ENDROOT
BRANCH  16  22
HETATM   22  O   LIG     1     -20.238 -19.702 -13.982  1.00  0.00    -0.355 OA
HETATM   23  C   LIG     1     -19.483 -20.560 -13.131  1.00  0.00     0.210 C 
ENDBRANCH  16  22
TORSDOF 1
ENDMDL
