MODEL 1
REMARK VINA RESULT:      -9.9      0.000      0.000
REMARK  4 active torsions:
REMARK  status: ('A' for Active; 'I' for Inactive)
REMARK    1  A    between atoms: O_5  and  C_10 
REMARK    2  A    between atoms: O_5  and  C_15 
REMARK    3  A    between atoms: C_9  and  C_16 
REMARK    4  A    between atoms: C_15  and  C_17 
ROOT
HETATM    1  O   LIG     1     -21.115 -14.585  -9.880  1.00  0.00    -0.275 OA
HETATM    2  O   LIG     1     -22.291 -12.659 -10.252  1.00  0.00    -0.260 OA
HETATM    3  C   LIG     1     -22.212 -16.456  -8.754  1.00  0.00     0.013 A 
HETATM    4  C   LIG     1     -21.087 -15.896  -9.364  1.00  0.00     0.093 A 
HETATM    5  C   LIG     1     -23.436 -15.649  -8.660  1.00  0.00     0.066 A 
HETATM    6  C   LIG     1     -19.797 -17.892  -9.003  1.00  0.00     0.071 A 
HETATM    7  C   LIG     1     -22.103 -17.765  -8.266  1.00  0.00     0.018 A 
HETATM    8  C   LIG     1     -19.885 -16.594  -9.494  1.00  0.00     0.075 A 
HETATM    9  C   LIG     1     -20.904 -18.477  -8.390  1.00  0.00     0.038 A 
HETATM   10  C   LIG     1     -23.433 -14.405  -9.161  1.00  0.00     0.099 A 
HETATM   11  C   LIG     1     -22.255 -13.801  -9.806  1.00  0.00     0.289 A 
ENDROOT
BRANCH   6  12
HETATM   12  O   LIG     1     -18.635 -18.590  -9.120  1.00  0.00    -0.347 OA
BRANCH  12  13
HETATM   13  C   LIG     1     -18.729 -20.013  -9.131  1.00  0.00     0.214 C 
BRANCH  13  14
HETATM   14  C   LIG     1     -18.990 -20.425 -10.546  1.00  0.00    -0.034 A 
HETATM   15  C   LIG     1     -19.187 -21.768 -10.851  1.00  0.00     0.009 A 
HETATM   16  C   LIG     1     -19.431 -22.152 -12.170  1.00  0.00     0.001 A 
HETATM   17  C   LIG     1     -19.477 -21.189 -13.179  1.00  0.00     0.000 A 
HETATM   18  C   LIG     1     -19.278 -19.844 -12.869  1.00  0.00     0.001 A 
HETATM   19  C   LIG     1     -19.035 -19.461 -11.550  1.00  0.00     0.009 A 
ENDBRANCH  13  14
ENDBRANCH  12  13
ENDBRANCH   6  12
BRANCH   5  20
HETATM   20  C   LIG     1     -24.662 -16.221  -8.012  1.00  0.00     0.418 C 
HETATM   21  F   LIG     1     -25.688 -15.351  -8.071  1.00  0.00    -0.166 F 
HETATM   22  F   LIG     1     -24.430 -16.503  -6.715  1.00  0.00    -0.166 F 
HETATM   23  F   LIG     1     -25.045 -17.360  -8.622  1.00  0.00    -0.166 F 
ENDBRANCH   5  20
TORSDOF 4
ENDMDL
