MODEL 1
REMARK VINA RESULT:      -7.4      0.000      0.000
REMARK  3 active torsions:
REMARK  status: ('A' for Active; 'I' for Inactive)
REMARK    1  A    between atoms: C_5  and  C_15 
REMARK    2  A    between atoms: C_15  and  C_16 
REMARK    3  A    between atoms: C_16  and  C_17 
ROOT
HETATM    1  O   LIG     1     -22.530 -16.011 -13.746  1.00  0.00    -0.287 OA
HETATM    2  O   LIG     1     -22.221 -16.911 -11.715  1.00  0.00    -0.238 OA
HETATM    3  N   LIG     1     -22.425 -14.594 -11.842  1.00  0.00    -0.300 N 
HETATM    4  C   LIG     1     -22.527 -13.369 -12.689  1.00  0.00     0.071 C 
HETATM    5  C   LIG     1     -23.353 -13.741 -13.947  1.00  0.00     0.047 C 
HETATM    6  C   LIG     1     -22.603 -14.873 -14.638  1.00  0.00     0.128 C 
HETATM    7  C   LIG     1     -21.100 -12.904 -13.094  1.00  0.00     0.021 C 
HETATM    8  C   LIG     1     -23.260 -12.236 -11.921  1.00  0.00     0.021 C 
HETATM    9  C   LIG     1     -21.188 -14.490 -15.081  1.00  0.00     0.030 C 
HETATM   10  C   LIG     1     -20.343 -13.930 -13.941  1.00  0.00     0.004 C 
HETATM   11  C   LIG     1     -22.761 -12.032 -10.495  1.00  0.00     0.004 C 
HETATM   12  C   LIG     1     -22.058 -14.430 -10.431  1.00  0.00     0.106 C 
HETATM   13  C   LIG     1     -22.851 -13.341  -9.729  1.00  0.00     0.024 C 
HETATM   14  C   LIG     1     -22.381 -15.891 -12.387  1.00  0.00     0.365 C 
ENDROOT
BRANCH   5  15
HETATM   15  C   LIG     1     -23.659 -12.587 -14.907  1.00  0.00     0.004 C 
BRANCH  15  16
HETATM   16  C   LIG     1     -24.650 -13.017 -15.982  1.00  0.00     0.000 C 
BRANCH  16  17
HETATM   17  C   LIG     1     -24.146 -12.634 -17.374  1.00  0.00     0.000 C 
HETATM   18  C   LIG     1     -23.803 -13.863 -18.200  1.00  0.00     0.000 C 
ENDBRANCH  16  17
ENDBRANCH  15  16
ENDBRANCH   5  15
TORSDOF 3
ENDMDL
