MODEL 1
REMARK VINA RESULT:      -5.0      0.000      0.000
REMARK  5 active torsions:
REMARK  status: ('A' for Active; 'I' for Inactive)
REMARK    1  A    between atoms: O_1  and  C_6 
REMARK    2  A    between atoms: O_1  and  C_8 
REMARK    3  A    between atoms: O_2  and  C_5 
REMARK    4  A    between atoms: C_4  and  C_5 
REMARK    5  A    between atoms: C_4  and  C_6 
ROOT
HETATM    1  C   LIG     1     -18.905 -20.989  -9.507  1.00  0.00     0.058 C 
ENDROOT
BRANCH   1   2
HETATM    2  C   LIG     1     -19.197 -21.734 -10.810  1.00  0.00     0.116 C 
HETATM    3  C   LIG     1     -19.208 -20.789 -12.004  1.00  0.00     0.039 C 
BRANCH   2   4
HETATM    4  O   LIG     1     -18.211 -22.738 -11.030  1.00  0.00    -0.396 OA
HETATM    5  H   LIG     1     -18.585 -23.393 -11.643  1.00  0.00     0.210 HD
ENDBRANCH   2   4
ENDBRANCH   1   2
BRANCH   1   6
HETATM    6  C   LIG     1     -19.625 -19.648  -9.429  1.00  0.00     0.181 C 
BRANCH   6   7
HETATM    7  O   LIG     1     -18.675 -18.633  -9.132  1.00  0.00    -0.322 OA
BRANCH   7   8
HETATM    8  C   LIG     1     -18.932 -17.401  -9.668  1.00  0.00     0.254 C 
HETATM    9  O   LIG     1     -19.496 -16.474  -9.103  1.00  0.00    -0.266 OA
HETATM   10  C   LIG     1     -18.417 -17.340 -11.074  1.00  0.00     0.126 C 
ENDBRANCH   7   8
ENDBRANCH   6   7
ENDBRANCH   1   6
TORSDOF 5
ENDMDL
MODEL 2
REMARK VINA RESULT:      -4.7      2.008      2.704
REMARK  5 active torsions:
REMARK  status: ('A' for Active; 'I' for Inactive)
REMARK    1  A    between atoms: O_1  and  C_6 
REMARK    2  A    between atoms: O_1  and  C_8 
REMARK    3  A    between atoms: O_2  and  C_5 
REMARK    4  A    between atoms: C_4  and  C_5 
REMARK    5  A    between atoms: C_4  and  C_6 
ROOT
HETATM    1  C   LIG     1     -18.943 -19.418  -9.207  1.00  0.00     0.058 C 
ENDROOT
BRANCH   1   2
HETATM    2  C   LIG     1     -19.294 -20.890  -9.421  1.00  0.00     0.116 C 
HETATM    3  C   LIG     1     -20.755 -21.066  -9.813  1.00  0.00     0.039 C 
BRANCH   2   4
HETATM    4  O   LIG     1     -18.475 -21.444 -10.447  1.00  0.00    -0.396 OA
HETATM    5  H   LIG     1     -17.547 -21.316 -10.188  1.00  0.00     0.210 HD
ENDBRANCH   2   4
ENDBRANCH   1   2
BRANCH   1   6
HETATM    6  C   LIG     1     -19.563 -18.512 -10.265  1.00  0.00     0.181 C 
BRANCH   6   7
HETATM    7  O   LIG     1     -18.658 -18.392 -11.354  1.00  0.00    -0.322 OA
BRANCH   7   8
HETATM    8  C   LIG     1     -19.122 -18.828 -12.565  1.00  0.00     0.254 C 
HETATM    9  O   LIG     1     -19.228 -19.995 -12.917  1.00  0.00    -0.266 OA
HETATM   10  C   LIG     1     -19.492 -17.655 -13.421  1.00  0.00     0.126 C 
ENDBRANCH   7   8
ENDBRANCH   6   7
ENDBRANCH   1   6
TORSDOF 5
ENDMDL
MODEL 3
REMARK VINA RESULT:      -4.7      2.638      3.085
REMARK  5 active torsions:
REMARK  status: ('A' for Active; 'I' for Inactive)
REMARK    1  A    between atoms: O_1  and  C_6 
REMARK    2  A    between atoms: O_1  and  C_8 
REMARK    3  A    between atoms: O_2  and  C_5 
REMARK    4  A    between atoms: C_4  and  C_5 
REMARK    5  A    between atoms: C_4  and  C_6 
ROOT
HETATM    1  C   LIG     1     -19.201 -20.472 -12.148  1.00  0.00     0.058 C 
ENDROOT
BRANCH   1   2
HETATM    2  C   LIG     1     -18.979 -21.148 -10.795  1.00  0.00     0.116 C 
HETATM    3  C   LIG     1     -20.298 -21.431 -10.088  1.00  0.00     0.039 C 
BRANCH   2   4
HETATM    4  O   LIG     1     -18.280 -22.377 -10.970  1.00  0.00    -0.396 OA
HETATM    5  H   LIG     1     -17.338 -22.210 -10.803  1.00  0.00     0.210 HD
ENDBRANCH   2   4
ENDBRANCH   1   2
BRANCH   1   6
HETATM    6  C   LIG     1     -19.181 -18.951 -12.050  1.00  0.00     0.181 C 
BRANCH   6   7
HETATM    7  O   LIG     1     -18.956 -18.410 -13.344  1.00  0.00    -0.322 OA
BRANCH   7   8
HETATM    8  C   LIG     1     -19.399 -17.131 -13.541  1.00  0.00     0.254 C 
HETATM    9  O   LIG     1     -20.269 -16.783 -14.327  1.00  0.00    -0.266 OA
HETATM   10  C   LIG     1     -18.655 -16.191 -12.641  1.00  0.00     0.126 C 
ENDBRANCH   7   8
ENDBRANCH   6   7
ENDBRANCH   1   6
TORSDOF 5
ENDMDL
MODEL 4
REMARK VINA RESULT:      -4.3     15.344     17.176
REMARK  5 active torsions:
REMARK  status: ('A' for Active; 'I' for Inactive)
REMARK    1  A    between atoms: O_1  and  C_6 
REMARK    2  A    between atoms: O_1  and  C_8 
REMARK    3  A    between atoms: O_2  and  C_5 
REMARK    4  A    between atoms: C_4  and  C_5 
REMARK    5  A    between atoms: C_4  and  C_6 
ROOT
HETATM    1  C   LIG     1     -29.962 -30.302 -20.009  1.00  0.00     0.058 C 
ENDROOT
BRANCH   1   2
HETATM    2  C   LIG     1     -30.543 -28.888 -20.031  1.00  0.00     0.116 C 
HETATM    3  C   LIG     1     -31.894 -28.849 -20.733  1.00  0.00     0.039 C 
BRANCH   2   4
HETATM    4  O   LIG     1     -30.704 -28.406 -18.700  1.00  0.00    -0.396 OA
HETATM    5  H   LIG     1     -30.375 -27.491 -18.674  1.00  0.00     0.210 HD
ENDBRANCH   2   4
ENDBRANCH   1   2
BRANCH   1   6
HETATM    6  C   LIG     1     -28.438 -30.305 -19.983  1.00  0.00     0.181 C 
BRANCH   6   7
HETATM    7  O   LIG     1     -27.995 -29.478 -18.915  1.00  0.00    -0.322 OA
BRANCH   7   8
HETATM    8  C   LIG     1     -27.698 -30.123 -17.746  1.00  0.00     0.254 C 
HETATM    9  O   LIG     1     -27.256 -31.259 -17.643  1.00  0.00    -0.266 OA
HETATM   10  C   LIG     1     -27.995 -29.228 -16.581  1.00  0.00     0.126 C 
ENDBRANCH   7   8
ENDBRANCH   6   7
ENDBRANCH   1   6
TORSDOF 5
ENDMDL
MODEL 5
REMARK VINA RESULT:      -4.2      1.610      4.074
REMARK  5 active torsions:
REMARK  status: ('A' for Active; 'I' for Inactive)
REMARK    1  A    between atoms: O_1  and  C_6 
REMARK    2  A    between atoms: O_1  and  C_8 
REMARK    3  A    between atoms: O_2  and  C_5 
REMARK    4  A    between atoms: C_4  and  C_5 
REMARK    5  A    between atoms: C_4  and  C_6 
ROOT
HETATM    1  C   LIG     1     -19.598 -18.493 -11.768  1.00  0.00     0.058 C 
ENDROOT
BRANCH   1   2
HETATM    2  C   LIG     1     -18.524 -17.418 -11.598  1.00  0.00     0.116 C 
HETATM    3  C   LIG     1     -18.958 -16.092 -12.209  1.00  0.00     0.039 C 
BRANCH   2   4
HETATM    4  O   LIG     1     -18.247 -17.217 -10.215  1.00  0.00    -0.396 OA
HETATM    5  H   LIG     1     -18.407 -18.057  -9.755  1.00  0.00     0.210 HD
ENDBRANCH   2   4
ENDBRANCH   1   2
BRANCH   1   6
HETATM    6  C   LIG     1     -20.393 -18.727 -10.489  1.00  0.00     0.181 C 
BRANCH   6   7
HETATM    7  O   LIG     1     -20.488 -20.126 -10.257  1.00  0.00    -0.322 OA
BRANCH   7   8
HETATM    8  C   LIG     1     -19.349 -20.734  -9.805  1.00  0.00     0.254 C 
HETATM    9  O   LIG     1     -18.699 -21.580 -10.403  1.00  0.00    -0.266 OA
HETATM   10  C   LIG     1     -18.998 -20.210  -8.446  1.00  0.00     0.126 C 
ENDBRANCH   7   8
ENDBRANCH   6   7
ENDBRANCH   1   6
TORSDOF 5
ENDMDL
MODEL 6
REMARK VINA RESULT:      -4.1     15.140     16.933
REMARK  5 active torsions:
REMARK  status: ('A' for Active; 'I' for Inactive)
REMARK    1  A    between atoms: O_1  and  C_6 
REMARK    2  A    between atoms: O_1  and  C_8 
REMARK    3  A    between atoms: O_2  and  C_5 
REMARK    4  A    between atoms: C_4  and  C_5 
REMARK    5  A    between atoms: C_4  and  C_6 
ROOT
HETATM    1  C   LIG     1     -28.219 -30.517 -20.269  1.00  0.00     0.058 C 
ENDROOT
BRANCH   1   2
HETATM    2  C   LIG     1     -29.660 -30.961 -20.519  1.00  0.00     0.116 C 
HETATM    3  C   LIG     1     -30.644 -29.823 -20.286  1.00  0.00     0.039 C 
BRANCH   2   4
HETATM    4  O   LIG     1     -29.804 -31.423 -21.859  1.00  0.00    -0.396 OA
HETATM    5  H   LIG     1     -30.547 -30.942 -22.262  1.00  0.00     0.210 HD
ENDBRANCH   2   4
ENDBRANCH   1   2
BRANCH   1   6
HETATM    6  C   LIG     1     -27.846 -30.556 -18.791  1.00  0.00     0.181 C 
BRANCH   6   7
HETATM    7  O   LIG     1     -27.722 -29.223 -18.314  1.00  0.00    -0.322 OA
BRANCH   7   8
HETATM    8  C   LIG     1     -28.310 -28.967 -17.105  1.00  0.00     0.254 C 
HETATM    9  O   LIG     1     -28.037 -29.508 -16.043  1.00  0.00    -0.266 OA
HETATM   10  C   LIG     1     -29.357 -27.907 -17.264  1.00  0.00     0.126 C 
ENDBRANCH   7   8
ENDBRANCH   6   7
ENDBRANCH   1   6
TORSDOF 5
ENDMDL
MODEL 7
REMARK VINA RESULT:      -4.0      2.205      2.762
REMARK  5 active torsions:
REMARK  status: ('A' for Active; 'I' for Inactive)
REMARK    1  A    between atoms: O_1  and  C_6 
REMARK    2  A    between atoms: O_1  and  C_8 
REMARK    3  A    between atoms: O_2  and  C_5 
REMARK    4  A    between atoms: C_4  and  C_5 
REMARK    5  A    between atoms: C_4  and  C_6 
ROOT
HETATM    1  C   LIG     1     -20.444 -19.853 -10.097  1.00  0.00     0.058 C 
ENDROOT
BRANCH   1   2
HETATM    2  C   LIG     1     -19.050 -20.185  -9.565  1.00  0.00     0.116 C 
HETATM    3  C   LIG     1     -19.039 -20.278  -8.045  1.00  0.00     0.039 C 
BRANCH   2   4
HETATM    4  O   LIG     1     -18.604 -21.426 -10.102  1.00  0.00    -0.396 OA
HETATM    5  H   LIG     1     -17.637 -21.459 -10.013  1.00  0.00     0.210 HD
ENDBRANCH   2   4
ENDBRANCH   1   2
BRANCH   1   6
HETATM    6  C   LIG     1     -20.501 -18.486 -10.769  1.00  0.00     0.181 C 
BRANCH   6   7
HETATM    7  O   LIG     1     -20.867 -17.513  -9.801  1.00  0.00    -0.322 OA
BRANCH   7   8
HETATM    8  C   LIG     1     -21.436 -16.369 -10.291  1.00  0.00     0.254 C 
HETATM    9  O   LIG     1     -20.985 -15.237 -10.182  1.00  0.00    -0.266 OA
HETATM   10  C   LIG     1     -22.717 -16.699 -10.996  1.00  0.00     0.126 C 
ENDBRANCH   7   8
ENDBRANCH   6   7
ENDBRANCH   1   6
TORSDOF 5
ENDMDL
MODEL 8
REMARK VINA RESULT:      -4.0      1.266      4.125
REMARK  5 active torsions:
REMARK  status: ('A' for Active; 'I' for Inactive)
REMARK    1  A    between atoms: O_1  and  C_6 
REMARK    2  A    between atoms: O_1  and  C_8 
REMARK    3  A    between atoms: O_2  and  C_5 
REMARK    4  A    between atoms: C_4  and  C_5 
REMARK    5  A    between atoms: C_4  and  C_6 
ROOT
HETATM    1  C   LIG     1     -19.511 -18.968  -8.562  1.00  0.00     0.058 C 
ENDROOT
BRANCH   1   2
HETATM    2  C   LIG     1     -19.628 -17.903  -9.653  1.00  0.00     0.116 C 
HETATM    3  C   LIG     1     -19.917 -16.529  -9.064  1.00  0.00     0.039 C 
BRANCH   2   4
HETATM    4  O   LIG     1     -18.419 -17.836 -10.402  1.00  0.00    -0.396 OA
HETATM    5  H   LIG     1     -18.543 -18.352 -11.216  1.00  0.00     0.210 HD
ENDBRANCH   2   4
ENDBRANCH   1   2
BRANCH   1   6
HETATM    6  C   LIG     1     -18.935 -20.278  -9.087  1.00  0.00     0.181 C 
BRANCH   6   7
HETATM    7  O   LIG     1     -19.771 -20.762 -10.130  1.00  0.00    -0.322 OA
BRANCH   7   8
HETATM    8  C   LIG     1     -19.133 -21.403 -11.156  1.00  0.00     0.254 C 
HETATM    9  O   LIG     1     -18.563 -22.483 -11.087  1.00  0.00    -0.266 OA
HETATM   10  C   LIG     1     -19.229 -20.582 -12.407  1.00  0.00     0.126 C 
ENDBRANCH   7   8
ENDBRANCH   6   7
ENDBRANCH   1   6
TORSDOF 5
ENDMDL
MODEL 9
REMARK VINA RESULT:      -4.0      1.895      3.609
REMARK  5 active torsions:
REMARK  status: ('A' for Active; 'I' for Inactive)
REMARK    1  A    between atoms: O_1  and  C_6 
REMARK    2  A    between atoms: O_1  and  C_8 
REMARK    3  A    between atoms: O_2  and  C_5 
REMARK    4  A    between atoms: C_4  and  C_5 
REMARK    5  A    between atoms: C_4  and  C_6 
ROOT
HETATM    1  C   LIG     1     -18.384 -17.683 -10.898  1.00  0.00     0.058 C 
ENDROOT
BRANCH   1   2
HETATM    2  C   LIG     1     -19.195 -17.590 -12.191  1.00  0.00     0.116 C 
HETATM    3  C   LIG     1     -19.158 -18.898 -12.970  1.00  0.00     0.039 C 
BRANCH   2   4
HETATM    4  O   LIG     1     -20.552 -17.271 -11.895  1.00  0.00    -0.396 OA
HETATM    5  H   LIG     1     -20.569 -16.808 -11.040  1.00  0.00     0.210 HD
ENDBRANCH   2   4
ENDBRANCH   1   2
BRANCH   1   6
HETATM    6  C   LIG     1     -19.253 -17.538  -9.654  1.00  0.00     0.181 C 
BRANCH   6   7
HETATM    7  O   LIG     1     -20.146 -18.642  -9.586  1.00  0.00    -0.322 OA
BRANCH   7   8
HETATM    8  C   LIG     1     -19.600 -19.824  -9.165  1.00  0.00     0.254 C 
HETATM    9  O   LIG     1     -18.766 -19.957  -8.281  1.00  0.00    -0.266 OA
HETATM   10  C   LIG     1     -20.178 -20.960  -9.954  1.00  0.00     0.126 C 
ENDBRANCH   7   8
ENDBRANCH   6   7
ENDBRANCH   1   6
TORSDOF 5
ENDMDL
