MODEL 1
REMARK VINA RESULT:      -8.8      0.000      0.000
REMARK  7 active torsions:
REMARK  status: ('A' for Active; 'I' for Inactive)
REMARK    1  A    between atoms: O_2  and  C_15 
REMARK    2  A    between atoms: O_2  and  C_16 
REMARK    3  A    between atoms: N_5  and  C_14 
REMARK    4  A    between atoms: N_5  and  C_20 
REMARK    5  A    between atoms: C_8  and  C_9 
REMARK    6  A    between atoms: C_9  and  C_10 
REMARK    7  A    between atoms: C_14  and  C_15 
ROOT
HETATM    1  C   LIG     1     -19.169 -18.463 -10.778  1.00  0.00    -0.056 A 
HETATM    2  C   LIG     1     -19.257 -18.093 -12.112  1.00  0.00     0.010 A 
HETATM    3  C   LIG     1     -19.154 -19.798 -10.404  1.00  0.00     0.010 A 
HETATM    4  C   LIG     1     -19.318 -20.427 -12.731  1.00  0.00     0.068 A 
HETATM    5  C   LIG     1     -19.333 -19.081 -13.093  1.00  0.00     0.037 A 
HETATM    6  C   LIG     1     -19.228 -20.786 -11.385  1.00  0.00     0.037 A 
ENDROOT
BRANCH   4   7
HETATM    7  O   LIG     1     -19.391 -21.392 -13.688  1.00  0.00    -0.350 OA
BRANCH   7   8
HETATM    8  C   LIG     1     -20.403 -21.244 -14.682  1.00  0.00     0.195 C 
BRANCH   8   9
HETATM    9  C   LIG     1     -21.694 -21.856 -14.161  1.00  0.00     0.150 C 
BRANCH   9  10
HETATM   10  N   LIG     1     -22.839 -21.345 -14.898  1.00  0.00    -0.368 N 
HETATM   11  C   LIG     1     -22.982 -19.901 -15.035  1.00  0.00     0.151 C 
BRANCH  10  12
HETATM   12  C   LIG     1     -23.784 -22.212 -15.451  1.00  0.00     0.124 A 
HETATM   13  N   LIG     1     -24.731 -21.720 -16.298  1.00  0.00    -0.244 NA
HETATM   14  C   LIG     1     -25.622 -22.601 -16.806  1.00  0.00     0.119 A 
HETATM   15  C   LIG     1     -25.625 -23.956 -16.515  1.00  0.00     0.019 A 
HETATM   16  C   LIG     1     -24.650 -24.437 -15.649  1.00  0.00     0.005 A 
HETATM   17  C   LIG     1     -23.716 -23.562 -15.106  1.00  0.00     0.050 A 
ENDBRANCH  10  12
ENDBRANCH   9  10
ENDBRANCH   8   9
ENDBRANCH   7   8
ENDBRANCH   4   7
BRANCH   1  18
HETATM   18  C   LIG     1     -19.088 -17.396  -9.717  1.00  0.00     0.063 C 
BRANCH  18  19
HETATM   19  C   LIG     1     -20.457 -16.839  -9.366  1.00  0.00     0.153 A 
HETATM   20  S   LIG     1     -20.395 -15.029  -9.190  1.00  0.00    -0.054 SA
HETATM   21  C   LIG     1     -21.024 -15.042  -7.557  1.00  0.00     0.287 A 
HETATM   22  O   LIG     1     -21.227 -14.028  -6.906  1.00  0.00    -0.260 OA
HETATM   23  N   LIG     1     -21.231 -16.338  -7.162  1.00  0.00    -0.287 N 
HETATM   24  C   LIG     1     -20.942 -17.366  -8.034  1.00  0.00     0.239 A 
HETATM   25  H   LIG     1     -21.582 -16.541  -6.231  1.00  0.00     0.172 HD
HETATM   26  O   LIG     1     -21.063 -18.559  -7.780  1.00  0.00    -0.272 OA
ENDBRANCH  18  19
ENDBRANCH   1  18
TORSDOF 7
ENDMDL
MODEL 2
REMARK VINA RESULT:      -8.3      4.888      7.149
REMARK  7 active torsions:
REMARK  status: ('A' for Active; 'I' for Inactive)
REMARK    1  A    between atoms: O_2  and  C_15 
REMARK    2  A    between atoms: O_2  and  C_16 
REMARK    3  A    between atoms: N_5  and  C_14 
REMARK    4  A    between atoms: N_5  and  C_20 
REMARK    5  A    between atoms: C_8  and  C_9 
REMARK    6  A    between atoms: C_9  and  C_10 
REMARK    7  A    between atoms: C_14  and  C_15 
ROOT
HETATM    1  C   LIG     1     -19.183 -16.971 -12.486  1.00  0.00    -0.056 A 
HETATM    2  C   LIG     1     -20.116 -17.566 -13.323  1.00  0.00     0.010 A 
HETATM    3  C   LIG     1     -18.884 -15.621 -12.590  1.00  0.00     0.010 A 
HETATM    4  C   LIG     1     -20.472 -15.434 -14.402  1.00  0.00     0.068 A 
HETATM    5  C   LIG     1     -20.763 -16.793 -14.286  1.00  0.00     0.037 A 
HETATM    6  C   LIG     1     -19.532 -14.848 -13.554  1.00  0.00     0.037 A 
ENDROOT
BRANCH   4   7
HETATM    7  O   LIG     1     -21.103 -14.679 -15.343  1.00  0.00    -0.350 OA
BRANCH   7   8
HETATM    8  C   LIG     1     -21.832 -13.544 -14.880  1.00  0.00     0.195 C 
BRANCH   8   9
HETATM    9  C   LIG     1     -22.975 -14.023 -14.000  1.00  0.00     0.150 C 
BRANCH   9  10
HETATM   10  N   LIG     1     -22.935 -13.365 -12.703  1.00  0.00    -0.368 N 
HETATM   11  C   LIG     1     -23.514 -12.031 -12.589  1.00  0.00     0.151 C 
BRANCH  10  12
HETATM   12  C   LIG     1     -22.349 -13.986 -11.598  1.00  0.00     0.124 A 
HETATM   13  N   LIG     1     -21.566 -13.255 -10.756  1.00  0.00    -0.244 NA
HETATM   14  C   LIG     1     -21.023 -13.904  -9.701  1.00  0.00     0.119 A 
HETATM   15  C   LIG     1     -21.216 -15.251  -9.436  1.00  0.00     0.019 A 
HETATM   16  C   LIG     1     -22.018 -15.977 -10.308  1.00  0.00     0.005 A 
HETATM   17  C   LIG     1     -22.594 -15.345 -11.404  1.00  0.00     0.050 A 
ENDBRANCH  10  12
ENDBRANCH   9  10
ENDBRANCH   8   9
ENDBRANCH   7   8
ENDBRANCH   4   7
BRANCH   1  18
HETATM   18  C   LIG     1     -18.483 -17.806 -11.445  1.00  0.00     0.063 C 
BRANCH  18  19
HETATM   19  C   LIG     1     -19.450 -18.711 -10.700  1.00  0.00     0.153 A 
HETATM   20  S   LIG     1     -19.352 -18.426  -8.905  1.00  0.00    -0.054 SA
HETATM   21  C   LIG     1     -18.981 -20.096  -8.535  1.00  0.00     0.287 A 
HETATM   22  O   LIG     1     -18.822 -20.514  -7.398  1.00  0.00    -0.260 OA
HETATM   23  N   LIG     1     -18.902 -20.811  -9.702  1.00  0.00    -0.287 N 
HETATM   24  C   LIG     1     -19.111 -20.170 -10.905  1.00  0.00     0.239 A 
HETATM   25  H   LIG     1     -18.678 -21.801  -9.683  1.00  0.00     0.172 HD
HETATM   26  O   LIG     1     -19.039 -20.702 -12.007  1.00  0.00    -0.272 OA
ENDBRANCH  18  19
ENDBRANCH   1  18
TORSDOF 7
ENDMDL
MODEL 3
REMARK VINA RESULT:      -8.3      3.208      8.215
REMARK  7 active torsions:
REMARK  status: ('A' for Active; 'I' for Inactive)
REMARK    1  A    between atoms: O_2  and  C_15 
REMARK    2  A    between atoms: O_2  and  C_16 
REMARK    3  A    between atoms: N_5  and  C_14 
REMARK    4  A    between atoms: N_5  and  C_20 
REMARK    5  A    between atoms: C_8  and  C_9 
REMARK    6  A    between atoms: C_9  and  C_10 
REMARK    7  A    between atoms: C_14  and  C_15 
ROOT
HETATM    1  C   LIG     1     -20.481 -20.687 -13.723  1.00  0.00    -0.056 A 
HETATM    2  C   LIG     1     -20.056 -21.539 -12.714  1.00  0.00     0.010 A 
HETATM    3  C   LIG     1     -20.198 -19.330 -13.682  1.00  0.00     0.010 A 
HETATM    4  C   LIG     1     -19.040 -19.660 -11.587  1.00  0.00     0.068 A 
HETATM    5  C   LIG     1     -19.332 -21.022 -11.640  1.00  0.00     0.037 A 
HETATM    6  C   LIG     1     -19.473 -18.814 -12.608  1.00  0.00     0.037 A 
ENDROOT
BRANCH   4   7
HETATM    7  O   LIG     1     -18.334 -19.154 -10.539  1.00  0.00    -0.350 OA
BRANCH   7   8
HETATM    8  C   LIG     1     -18.774 -17.909 -10.000  1.00  0.00     0.195 C 
BRANCH   8   9
HETATM    9  C   LIG     1     -19.924 -18.171  -9.040  1.00  0.00     0.150 C 
BRANCH   9  10
HETATM   10  N   LIG     1     -20.982 -17.190  -9.225  1.00  0.00    -0.368 N 
HETATM   11  C   LIG     1     -20.849 -16.231 -10.314  1.00  0.00     0.151 C 
BRANCH  10  12
HETATM   12  C   LIG     1     -22.090 -17.158  -8.375  1.00  0.00     0.124 A 
HETATM   13  N   LIG     1     -21.963 -17.595  -7.091  1.00  0.00    -0.244 NA
HETATM   14  C   LIG     1     -23.065 -17.543  -6.310  1.00  0.00     0.119 A 
HETATM   15  C   LIG     1     -24.298 -17.076  -6.739  1.00  0.00     0.019 A 
HETATM   16  C   LIG     1     -24.405 -16.634  -8.052  1.00  0.00     0.005 A 
HETATM   17  C   LIG     1     -23.294 -16.673  -8.887  1.00  0.00     0.050 A 
ENDBRANCH  10  12
ENDBRANCH   9  10
ENDBRANCH   8   9
ENDBRANCH   7   8
ENDBRANCH   4   7
BRANCH   1  18
HETATM   18  C   LIG     1     -21.264 -21.246 -14.883  1.00  0.00     0.063 C 
BRANCH  18  19
HETATM   19  C   LIG     1     -22.759 -21.231 -14.619  1.00  0.00     0.153 A 
HETATM   20  S   LIG     1     -23.545 -22.743 -15.258  1.00  0.00    -0.054 SA
HETATM   21  C   LIG     1     -24.672 -21.875 -16.278  1.00  0.00     0.287 A 
HETATM   22  O   LIG     1     -25.515 -22.427 -16.969  1.00  0.00    -0.260 OA
HETATM   23  N   LIG     1     -24.439 -20.529 -16.166  1.00  0.00    -0.287 N 
HETATM   24  C   LIG     1     -23.435 -20.083 -15.333  1.00  0.00     0.239 A 
HETATM   25  H   LIG     1     -24.991 -19.867 -16.702  1.00  0.00     0.172 HD
HETATM   26  O   LIG     1     -23.123 -18.907 -15.175  1.00  0.00    -0.272 OA
ENDBRANCH  18  19
ENDBRANCH   1  18
TORSDOF 7
ENDMDL
MODEL 4
REMARK VINA RESULT:      -8.2      6.040      9.477
REMARK  7 active torsions:
REMARK  status: ('A' for Active; 'I' for Inactive)
REMARK    1  A    between atoms: O_2  and  C_15 
REMARK    2  A    between atoms: O_2  and  C_16 
REMARK    3  A    between atoms: N_5  and  C_14 
REMARK    4  A    between atoms: N_5  and  C_20 
REMARK    5  A    between atoms: C_8  and  C_9 
REMARK    6  A    between atoms: C_9  and  C_10 
REMARK    7  A    between atoms: C_14  and  C_15 
ROOT
HETATM    1  C   LIG     1     -23.048 -12.561 -12.921  1.00  0.00    -0.056 A 
HETATM    2  C   LIG     1     -23.738 -12.076 -11.820  1.00  0.00     0.010 A 
HETATM    3  C   LIG     1     -21.709 -12.911 -12.831  1.00  0.00     0.010 A 
HETATM    4  C   LIG     1     -21.728 -12.286 -10.497  1.00  0.00     0.068 A 
HETATM    5  C   LIG     1     -23.074 -11.938 -10.601  1.00  0.00     0.037 A 
HETATM    6  C   LIG     1     -21.046 -12.773 -11.612  1.00  0.00     0.037 A 
ENDROOT
BRANCH   4   7
HETATM    7  O   LIG     1     -21.079 -12.151  -9.308  1.00  0.00    -0.350 OA
BRANCH   7   8
HETATM    8  C   LIG     1     -21.514 -12.982  -8.233  1.00  0.00     0.195 C 
BRANCH   8   9
HETATM    9  C   LIG     1     -20.570 -14.169  -8.120  1.00  0.00     0.150 C 
BRANCH   9  10
HETATM   10  N   LIG     1     -21.196 -15.375  -8.639  1.00  0.00    -0.368 N 
HETATM   11  C   LIG     1     -20.667 -15.951  -9.870  1.00  0.00     0.151 C 
BRANCH  10  12
HETATM   12  C   LIG     1     -22.281 -15.961  -7.985  1.00  0.00     0.124 A 
HETATM   13  N   LIG     1     -22.076 -16.643  -6.824  1.00  0.00    -0.244 NA
HETATM   14  C   LIG     1     -23.160 -17.191  -6.230  1.00  0.00     0.119 A 
HETATM   15  C   LIG     1     -24.449 -17.098  -6.731  1.00  0.00     0.019 A 
HETATM   16  C   LIG     1     -24.636 -16.397  -7.917  1.00  0.00     0.005 A 
HETATM   17  C   LIG     1     -23.546 -15.820  -8.558  1.00  0.00     0.050 A 
ENDBRANCH  10  12
ENDBRANCH   9  10
ENDBRANCH   8   9
ENDBRANCH   7   8
ENDBRANCH   4   7
BRANCH   1  18
HETATM   18  C   LIG     1     -23.765 -12.711 -14.238  1.00  0.00     0.063 C 
BRANCH  18  19
HETATM   19  C   LIG     1     -22.874 -13.326 -15.303  1.00  0.00     0.153 A 
HETATM   20  S   LIG     1     -23.149 -12.531 -16.916  1.00  0.00    -0.054 SA
HETATM   21  C   LIG     1     -23.549 -14.029 -17.727  1.00  0.00     0.287 A 
HETATM   22  O   LIG     1     -23.817 -14.100 -18.916  1.00  0.00    -0.260 OA
HETATM   23  N   LIG     1     -23.511 -15.057 -16.821  1.00  0.00    -0.287 N 
HETATM   24  C   LIG     1     -23.187 -14.791 -15.507  1.00  0.00     0.239 A 
HETATM   25  H   LIG     1     -23.733 -16.004 -17.111  1.00  0.00     0.172 HD
HETATM   26  O   LIG     1     -23.148 -15.625 -14.609  1.00  0.00    -0.272 OA
ENDBRANCH  18  19
ENDBRANCH   1  18
TORSDOF 7
ENDMDL
MODEL 5
REMARK VINA RESULT:      -8.2      3.971      5.531
REMARK  7 active torsions:
REMARK  status: ('A' for Active; 'I' for Inactive)
REMARK    1  A    between atoms: O_2  and  C_15 
REMARK    2  A    between atoms: O_2  and  C_16 
REMARK    3  A    between atoms: N_5  and  C_14 
REMARK    4  A    between atoms: N_5  and  C_20 
REMARK    5  A    between atoms: C_8  and  C_9 
REMARK    6  A    between atoms: C_9  and  C_10 
REMARK    7  A    between atoms: C_14  and  C_15 
ROOT
HETATM    1  C   LIG     1     -22.124 -14.499 -10.188  1.00  0.00    -0.056 A 
HETATM    2  C   LIG     1     -22.641 -15.533 -10.955  1.00  0.00     0.010 A 
HETATM    3  C   LIG     1     -20.988 -13.809 -10.587  1.00  0.00     0.010 A 
HETATM    4  C   LIG     1     -20.865 -15.200 -12.559  1.00  0.00     0.068 A 
HETATM    5  C   LIG     1     -22.007 -15.885 -12.146  1.00  0.00     0.037 A 
HETATM    6  C   LIG     1     -20.356 -14.161 -11.779  1.00  0.00     0.037 A 
ENDROOT
BRANCH   4   7
HETATM    7  O   LIG     1     -20.246 -15.544 -13.721  1.00  0.00    -0.350 OA
BRANCH   7   8
HETATM    8  C   LIG     1     -18.927 -16.077 -13.620  1.00  0.00     0.195 C 
BRANCH   8   9
HETATM    9  C   LIG     1     -19.010 -17.595 -13.648  1.00  0.00     0.150 C 
BRANCH   9  10
HETATM   10  N   LIG     1     -18.845 -18.143 -12.311  1.00  0.00    -0.368 N 
HETATM   11  C   LIG     1     -18.415 -17.245 -11.246  1.00  0.00     0.151 C 
BRANCH  10  12
HETATM   12  C   LIG     1     -19.079 -19.496 -12.054  1.00  0.00     0.124 A 
HETATM   13  N   LIG     1     -18.973 -19.964 -10.778  1.00  0.00    -0.244 NA
HETATM   14  C   LIG     1     -19.211 -21.280 -10.583  1.00  0.00     0.119 A 
HETATM   15  C   LIG     1     -19.551 -22.166 -11.594  1.00  0.00     0.019 A 
HETATM   16  C   LIG     1     -19.654 -21.667 -12.887  1.00  0.00     0.005 A 
HETATM   17  C   LIG     1     -19.416 -20.319 -13.129  1.00  0.00     0.050 A 
ENDBRANCH  10  12
ENDBRANCH   9  10
ENDBRANCH   8   9
ENDBRANCH   7   8
ENDBRANCH   4   7
BRANCH   1  18
HETATM   18  C   LIG     1     -22.808 -14.117  -8.901  1.00  0.00     0.063 C 
BRANCH  18  19
HETATM   19  C   LIG     1     -22.518 -15.110  -7.789  1.00  0.00     0.153 A 
HETATM   20  S   LIG     1     -20.850 -15.814  -7.968  1.00  0.00    -0.054 SA
HETATM   21  C   LIG     1     -21.418 -17.469  -8.012  1.00  0.00     0.287 A 
HETATM   22  O   LIG     1     -20.674 -18.433  -8.104  1.00  0.00    -0.260 OA
HETATM   23  N   LIG     1     -22.787 -17.479  -7.933  1.00  0.00    -0.287 N 
HETATM   24  C   LIG     1     -23.468 -16.285  -7.834  1.00  0.00     0.239 A 
HETATM   25  H   LIG     1     -23.295 -18.358  -7.959  1.00  0.00     0.172 HD
HETATM   26  O   LIG     1     -24.688 -16.173  -7.784  1.00  0.00    -0.272 OA
ENDBRANCH  18  19
ENDBRANCH   1  18
TORSDOF 7
ENDMDL
MODEL 6
REMARK VINA RESULT:      -8.2      4.018      8.201
REMARK  7 active torsions:
REMARK  status: ('A' for Active; 'I' for Inactive)
REMARK    1  A    between atoms: O_2  and  C_15 
REMARK    2  A    between atoms: O_2  and  C_16 
REMARK    3  A    between atoms: N_5  and  C_14 
REMARK    4  A    between atoms: N_5  and  C_20 
REMARK    5  A    between atoms: C_8  and  C_9 
REMARK    6  A    between atoms: C_9  and  C_10 
REMARK    7  A    between atoms: C_14  and  C_15 
ROOT
HETATM    1  C   LIG     1     -19.632 -17.385 -13.170  1.00  0.00    -0.056 A 
HETATM    2  C   LIG     1     -18.846 -16.465 -12.492  1.00  0.00     0.010 A 
HETATM    3  C   LIG     1     -20.924 -17.072 -13.566  1.00  0.00     0.010 A 
HETATM    4  C   LIG     1     -20.662 -14.875 -12.595  1.00  0.00     0.068 A 
HETATM    5  C   LIG     1     -19.365 -15.203 -12.203  1.00  0.00     0.037 A 
HETATM    6  C   LIG     1     -21.441 -15.810 -13.277  1.00  0.00     0.037 A 
ENDROOT
BRANCH   4   7
HETATM    7  O   LIG     1     -21.169 -13.643 -12.312  1.00  0.00    -0.350 OA
BRANCH   7   8
HETATM    8  C   LIG     1     -21.139 -13.227 -10.948  1.00  0.00     0.195 C 
BRANCH   8   9
HETATM    9  C   LIG     1     -22.335 -13.829 -10.227  1.00  0.00     0.150 C 
BRANCH   9  10
HETATM   10  N   LIG     1     -22.024 -14.066  -8.826  1.00  0.00    -0.368 N 
HETATM   11  C   LIG     1     -21.081 -13.169  -8.168  1.00  0.00     0.151 C 
BRANCH  10  12
HETATM   12  C   LIG     1     -22.602 -15.130  -8.131  1.00  0.00     0.124 A 
HETATM   13  N   LIG     1     -21.872 -15.791  -7.189  1.00  0.00    -0.244 NA
HETATM   14  C   LIG     1     -22.478 -16.813  -6.544  1.00  0.00     0.119 A 
HETATM   15  C   LIG     1     -23.781 -17.219  -6.786  1.00  0.00     0.019 A 
HETATM   16  C   LIG     1     -24.508 -16.531  -7.751  1.00  0.00     0.005 A 
HETATM   17  C   LIG     1     -23.919 -15.474  -8.436  1.00  0.00     0.050 A 
ENDBRANCH  10  12
ENDBRANCH   9  10
ENDBRANCH   8   9
ENDBRANCH   7   8
ENDBRANCH   4   7
BRANCH   1  18
HETATM   18  C   LIG     1     -19.072 -18.749 -13.483  1.00  0.00     0.063 C 
BRANCH  18  19
HETATM   19  C   LIG     1     -19.841 -19.853 -12.779  1.00  0.00     0.153 A 
HETATM   20  S   LIG     1     -19.175 -20.146 -11.111  1.00  0.00    -0.054 SA
HETATM   21  C   LIG     1     -18.858 -21.843 -11.400  1.00  0.00     0.287 A 
HETATM   22  O   LIG     1     -18.397 -22.594 -10.554  1.00  0.00    -0.260 OA
HETATM   23  N   LIG     1     -19.202 -22.154 -12.690  1.00  0.00    -0.287 N 
HETATM   24  C   LIG     1     -19.710 -21.170 -13.511  1.00  0.00     0.239 A 
HETATM   25  H   LIG     1     -19.072 -23.097 -13.042  1.00  0.00     0.172 HD
HETATM   26  O   LIG     1     -20.026 -21.328 -14.686  1.00  0.00    -0.272 OA
ENDBRANCH  18  19
ENDBRANCH   1  18
TORSDOF 7
ENDMDL
MODEL 7
REMARK VINA RESULT:      -8.2      4.309      7.478
REMARK  7 active torsions:
REMARK  status: ('A' for Active; 'I' for Inactive)
REMARK    1  A    between atoms: O_2  and  C_15 
REMARK    2  A    between atoms: O_2  and  C_16 
REMARK    3  A    between atoms: N_5  and  C_14 
REMARK    4  A    between atoms: N_5  and  C_20 
REMARK    5  A    between atoms: C_8  and  C_9 
REMARK    6  A    between atoms: C_9  and  C_10 
REMARK    7  A    between atoms: C_14  and  C_15 
ROOT
HETATM    1  C   LIG     1     -22.238 -14.491 -12.327  1.00  0.00    -0.056 A 
HETATM    2  C   LIG     1     -22.520 -15.731 -11.774  1.00  0.00     0.010 A 
HETATM    3  C   LIG     1     -21.288 -13.653 -11.763  1.00  0.00     0.010 A 
HETATM    4  C   LIG     1     -20.879 -15.311 -10.053  1.00  0.00     0.068 A 
HETATM    5  C   LIG     1     -21.837 -16.143 -10.630  1.00  0.00     0.037 A 
HETATM    6  C   LIG     1     -20.604 -14.066 -10.619  1.00  0.00     0.037 A 
ENDROOT
BRANCH   4   7
HETATM    7  O   LIG     1     -20.211 -15.712  -8.936  1.00  0.00    -0.350 OA
BRANCH   7   8
HETATM    8  C   LIG     1     -20.141 -17.115  -8.692  1.00  0.00     0.195 C 
BRANCH   8   9
HETATM    9  C   LIG     1     -18.842 -17.648  -9.275  1.00  0.00     0.150 C 
BRANCH   9  10
HETATM   10  N   LIG     1     -18.948 -19.072  -9.552  1.00  0.00    -0.368 N 
HETATM   11  C   LIG     1     -18.866 -20.000  -8.431  1.00  0.00     0.151 C 
BRANCH  10  12
HETATM   12  C   LIG     1     -19.113 -19.540 -10.857  1.00  0.00     0.124 A 
HETATM   13  N   LIG     1     -19.300 -20.872 -11.073  1.00  0.00    -0.244 NA
HETATM   14  C   LIG     1     -19.455 -21.274 -12.355  1.00  0.00     0.119 A 
HETATM   15  C   LIG     1     -19.433 -20.417 -13.444  1.00  0.00     0.019 A 
HETATM   16  C   LIG     1     -19.241 -19.062 -13.202  1.00  0.00     0.005 A 
HETATM   17  C   LIG     1     -19.077 -18.610 -11.897  1.00  0.00     0.050 A 
ENDBRANCH  10  12
ENDBRANCH   9  10
ENDBRANCH   8   9
ENDBRANCH   7   8
ENDBRANCH   4   7
BRANCH   1  18
HETATM   18  C   LIG     1     -22.977 -14.046 -13.563  1.00  0.00     0.063 C 
BRANCH  18  19
HETATM   19  C   LIG     1     -22.458 -14.736 -14.813  1.00  0.00     0.153 A 
HETATM   20  S   LIG     1     -22.198 -13.535 -16.156  1.00  0.00    -0.054 SA
HETATM   21  C   LIG     1     -23.252 -14.371 -17.275  1.00  0.00     0.287 A 
HETATM   22  O   LIG     1     -23.450 -13.995 -18.421  1.00  0.00    -0.260 OA
HETATM   23  N   LIG     1     -23.793 -15.467 -16.654  1.00  0.00    -0.287 N 
HETATM   24  C   LIG     1     -23.457 -15.739 -15.345  1.00  0.00     0.239 A 
HETATM   25  H   LIG     1     -24.446 -16.066 -17.150  1.00  0.00     0.172 HD
HETATM   26  O   LIG     1     -23.897 -16.673 -14.685  1.00  0.00    -0.272 OA
ENDBRANCH  18  19
ENDBRANCH   1  18
TORSDOF 7
ENDMDL
MODEL 8
REMARK VINA RESULT:      -8.1      5.008      7.896
REMARK  7 active torsions:
REMARK  status: ('A' for Active; 'I' for Inactive)
REMARK    1  A    between atoms: O_2  and  C_15 
REMARK    2  A    between atoms: O_2  and  C_16 
REMARK    3  A    between atoms: N_5  and  C_14 
REMARK    4  A    between atoms: N_5  and  C_20 
REMARK    5  A    between atoms: C_8  and  C_9 
REMARK    6  A    between atoms: C_9  and  C_10 
REMARK    7  A    between atoms: C_14  and  C_15 
ROOT
HETATM    1  C   LIG     1     -21.352 -16.765  -8.291  1.00  0.00    -0.056 A 
HETATM    2  C   LIG     1     -20.450 -15.786  -7.900  1.00  0.00     0.010 A 
HETATM    3  C   LIG     1     -22.582 -16.429  -8.837  1.00  0.00     0.010 A 
HETATM    4  C   LIG     1     -22.020 -14.091  -8.604  1.00  0.00     0.068 A 
HETATM    5  C   LIG     1     -20.786 -14.442  -8.057  1.00  0.00     0.037 A 
HETATM    6  C   LIG     1     -22.917 -15.085  -8.994  1.00  0.00     0.037 A 
ENDROOT
BRANCH   4   7
HETATM    7  O   LIG     1     -22.349 -12.779  -8.757  1.00  0.00    -0.350 OA
BRANCH   7   8
HETATM    8  C   LIG     1     -22.876 -12.386 -10.023  1.00  0.00     0.195 C 
BRANCH   8   9
HETATM    9  C   LIG     1     -21.721 -12.012 -10.938  1.00  0.00     0.150 C 
BRANCH   9  10
HETATM   10  N   LIG     1     -21.775 -12.779 -12.173  1.00  0.00    -0.368 N 
HETATM   11  C   LIG     1     -23.013 -12.761 -12.942  1.00  0.00     0.151 C 
BRANCH  10  12
HETATM   12  C   LIG     1     -20.675 -13.523 -12.607  1.00  0.00     0.124 A 
HETATM   13  N   LIG     1     -20.013 -13.145 -13.736  1.00  0.00    -0.244 NA
HETATM   14  C   LIG     1     -18.956 -13.899 -14.113  1.00  0.00     0.119 A 
HETATM   15  C   LIG     1     -18.516 -15.018 -13.423  1.00  0.00     0.019 A 
HETATM   16  C   LIG     1     -19.206 -15.385 -12.273  1.00  0.00     0.005 A 
HETATM   17  C   LIG     1     -20.299 -14.636 -11.854  1.00  0.00     0.050 A 
ENDBRANCH  10  12
ENDBRANCH   9  10
ENDBRANCH   8   9
ENDBRANCH   7   8
ENDBRANCH   4   7
BRANCH   1  18
HETATM   18  C   LIG     1     -20.988 -18.217  -8.122  1.00  0.00     0.063 C 
BRANCH  18  19
HETATM   19  C   LIG     1     -19.636 -18.539  -8.734  1.00  0.00     0.153 A 
HETATM   20  S   LIG     1     -19.698 -18.410 -10.548  1.00  0.00    -0.054 SA
HETATM   21  C   LIG     1     -19.149 -20.051 -10.808  1.00  0.00     0.287 A 
HETATM   22  O   LIG     1     -18.974 -20.534 -11.916  1.00  0.00    -0.260 OA
HETATM   23  N   LIG     1     -18.968 -20.665  -9.596  1.00  0.00    -0.287 N 
HETATM   24  C   LIG     1     -19.218 -19.961  -8.436  1.00  0.00     0.239 A 
HETATM   25  H   LIG     1     -18.664 -21.632  -9.551  1.00  0.00     0.172 HD
HETATM   26  O   LIG     1     -19.115 -20.415  -7.302  1.00  0.00    -0.272 OA
ENDBRANCH  18  19
ENDBRANCH   1  18
TORSDOF 7
ENDMDL
MODEL 9
REMARK VINA RESULT:      -8.0      5.477      7.888
REMARK  7 active torsions:
REMARK  status: ('A' for Active; 'I' for Inactive)
REMARK    1  A    between atoms: O_2  and  C_15 
REMARK    2  A    between atoms: O_2  and  C_16 
REMARK    3  A    between atoms: N_5  and  C_14 
REMARK    4  A    between atoms: N_5  and  C_20 
REMARK    5  A    between atoms: C_8  and  C_9 
REMARK    6  A    between atoms: C_9  and  C_10 
REMARK    7  A    between atoms: C_14  and  C_15 
ROOT
HETATM    1  C   LIG     1     -20.134 -14.745 -13.805  1.00  0.00    -0.056 A 
HETATM    2  C   LIG     1     -18.850 -14.587 -13.306  1.00  0.00     0.010 A 
HETATM    3  C   LIG     1     -20.875 -15.885 -13.531  1.00  0.00     0.010 A 
HETATM    4  C   LIG     1     -19.027 -16.744 -12.233  1.00  0.00     0.068 A 
HETATM    5  C   LIG     1     -18.293 -15.592 -12.516  1.00  0.00     0.037 A 
HETATM    6  C   LIG     1     -20.318 -16.890 -12.741  1.00  0.00     0.037 A 
ENDROOT
BRANCH   4   7
HETATM    7  O   LIG     1     -18.483 -17.726 -11.462  1.00  0.00    -0.350 OA
BRANCH   7   8
HETATM    8  C   LIG     1     -19.368 -18.433 -10.595  1.00  0.00     0.195 C 
BRANCH   8   9
HETATM    9  C   LIG     1     -19.557 -17.621  -9.323  1.00  0.00     0.150 C 
BRANCH   9  10
HETATM   10  N   LIG     1     -20.536 -18.253  -8.452  1.00  0.00    -0.368 N 
HETATM   11  C   LIG     1     -20.197 -19.537  -7.852  1.00  0.00     0.151 C 
BRANCH  10  12
HETATM   12  C   LIG     1     -21.772 -17.653  -8.204  1.00  0.00     0.124 A 
HETATM   13  N   LIG     1     -22.428 -17.025  -9.220  1.00  0.00    -0.244 NA
HETATM   14  C   LIG     1     -23.622 -16.461  -8.928  1.00  0.00     0.119 A 
HETATM   15  C   LIG     1     -24.204 -16.485  -7.670  1.00  0.00     0.019 A 
HETATM   16  C   LIG     1     -23.518 -17.131  -6.648  1.00  0.00     0.005 A 
HETATM   17  C   LIG     1     -22.287 -17.723  -6.909  1.00  0.00     0.050 A 
ENDBRANCH  10  12
ENDBRANCH   9  10
ENDBRANCH   8   9
ENDBRANCH   7   8
ENDBRANCH   4   7
BRANCH   1  18
HETATM   18  C   LIG     1     -20.736 -13.658 -14.659  1.00  0.00     0.063 C 
BRANCH  18  19
HETATM   19  C   LIG     1     -22.203 -13.917 -14.955  1.00  0.00     0.153 A 
HETATM   20  S   LIG     1     -22.498 -13.997 -16.749  1.00  0.00    -0.054 SA
HETATM   21  C   LIG     1     -23.698 -12.724 -16.734  1.00  0.00     0.287 A 
HETATM   22  O   LIG     1     -24.292 -12.348 -17.734  1.00  0.00    -0.260 OA
HETATM   23  N   LIG     1     -23.837 -12.247 -15.457  1.00  0.00    -0.287 N 
HETATM   24  C   LIG     1     -23.076 -12.793 -14.444  1.00  0.00     0.239 A 
HETATM   25  H   LIG     1     -24.483 -11.490 -15.260  1.00  0.00     0.172 HD
HETATM   26  O   LIG     1     -23.099 -12.430 -13.274  1.00  0.00    -0.272 OA
ENDBRANCH  18  19
ENDBRANCH   1  18
TORSDOF 7
ENDMDL
