MODEL 1
REMARK VINA RESULT:      -6.3      0.000      0.000
REMARK  8 active torsions:
REMARK  status: ('A' for Active; 'I' for Inactive)
REMARK    1  A    between atoms: O_2  and  C_7 
REMARK    2  A    between atoms: O_2  and  C_11 
REMARK    3  A    between atoms: O_3  and  C_9 
REMARK    4  A    between atoms: O_3  and  C_19 
REMARK    5  A    between atoms: N_6  and  C_8 
REMARK       I    between atoms: N_6  and  C_19 
REMARK    6  A    between atoms: C_8  and  C_10 
REMARK    7  A    between atoms: C_8  and  C_11 
REMARK    8  A    between atoms: C_10  and  C_18 
ROOT
HETATM    1  C   LIG     1     -20.505 -16.897  -9.725  1.00  0.00     0.187 C 
ENDROOT
BRANCH   1   2
HETATM    2  N   LIG     1     -20.383 -15.655 -10.446  1.00  0.00    -0.323 N 
HETATM    3  C   LIG     1     -21.202 -15.293 -11.498  1.00  0.00     0.362 C 
HETATM    4  O   LIG     1     -22.125 -15.965 -11.949  1.00  0.00    -0.238 OA
HETATM    5  H   LIG     1     -19.647 -15.010 -10.176  1.00  0.00     0.165 HD
BRANCH   3   6
HETATM    6  O   LIG     1     -20.834 -14.064 -11.969  1.00  0.00    -0.294 OA
BRANCH   6   7
HETATM    7  C   LIG     1     -20.010 -14.066 -13.141  1.00  0.00     0.061 C 
HETATM    8  C   LIG     1     -19.493 -15.486 -13.369  1.00  0.00     0.046 C 
HETATM    9  C   LIG     1     -18.848 -13.107 -12.887  1.00  0.00     0.046 C 
HETATM   10  C   LIG     1     -20.848 -13.594 -14.328  1.00  0.00     0.046 C 
ENDBRANCH   6   7
ENDBRANCH   3   6
ENDBRANCH   1   2
BRANCH   1  11
HETATM   11  C   LIG     1     -19.128 -17.521  -9.466  1.00  0.00     0.045 C 
BRANCH  11  12
HETATM   12  C   LIG     1     -19.042 -19.003  -9.849  1.00  0.00     0.082 C 
HETATM   13  I   LIG     1     -19.255 -20.239  -8.109  1.00  0.00    -0.090 I 
ENDBRANCH  11  12
ENDBRANCH   1  11
BRANCH   1  14
HETATM   14  C   LIG     1     -21.307 -16.749  -8.440  1.00  0.00     0.282 C 
HETATM   15  O   LIG     1     -20.951 -16.027  -7.515  1.00  0.00    -0.263 OA
BRANCH  14  16
HETATM   16  O   LIG     1     -22.443 -17.503  -8.454  1.00  0.00    -0.310 OA
BRANCH  16  17
HETATM   17  C   LIG     1     -23.672 -16.777  -8.353  1.00  0.00     0.060 C 
HETATM   18  C   LIG     1     -24.266 -17.017  -6.966  1.00  0.00     0.045 C 
HETATM   19  C   LIG     1     -24.608 -17.305  -9.438  1.00  0.00     0.045 C 
HETATM   20  C   LIG     1     -23.380 -15.293  -8.572  1.00  0.00     0.045 C 
ENDBRANCH  16  17
ENDBRANCH  14  16
ENDBRANCH   1  14
TORSDOF 8
ENDMDL
MODEL 2
REMARK VINA RESULT:      -6.2      1.025      5.257
REMARK  8 active torsions:
REMARK  status: ('A' for Active; 'I' for Inactive)
REMARK    1  A    between atoms: O_2  and  C_7 
REMARK    2  A    between atoms: O_2  and  C_11 
REMARK    3  A    between atoms: O_3  and  C_9 
REMARK    4  A    between atoms: O_3  and  C_19 
REMARK    5  A    between atoms: N_6  and  C_8 
REMARK       I    between atoms: N_6  and  C_19 
REMARK    6  A    between atoms: C_8  and  C_10 
REMARK    7  A    between atoms: C_8  and  C_11 
REMARK    8  A    between atoms: C_10  and  C_18 
ROOT
HETATM    1  C   LIG     1     -19.888 -16.511 -10.505  1.00  0.00     0.187 C 
ENDROOT
BRANCH   1   2
HETATM    2  N   LIG     1     -21.061 -17.077  -9.888  1.00  0.00    -0.323 N 
HETATM    3  C   LIG     1     -21.411 -16.871  -8.568  1.00  0.00     0.362 C 
HETATM    4  O   LIG     1     -20.784 -16.192  -7.760  1.00  0.00    -0.238 OA
HETATM    5  H   LIG     1     -21.663 -17.671 -10.450  1.00  0.00     0.165 HD
BRANCH   3   6
HETATM    6  O   LIG     1     -22.569 -17.539  -8.286  1.00  0.00    -0.294 OA
BRANCH   6   7
HETATM    7  C   LIG     1     -23.768 -16.756  -8.331  1.00  0.00     0.061 C 
HETATM    8  C   LIG     1     -23.386 -15.294  -8.562  1.00  0.00     0.046 C 
HETATM    9  C   LIG     1     -24.474 -16.920  -6.986  1.00  0.00     0.046 C 
HETATM   10  C   LIG     1     -24.647 -17.275  -9.467  1.00  0.00     0.046 C 
ENDBRANCH   6   7
ENDBRANCH   3   6
ENDBRANCH   1   2
BRANCH   1  11
HETATM   11  C   LIG     1     -18.690 -17.462 -10.387  1.00  0.00     0.045 C 
BRANCH  11  12
HETATM   12  C   LIG     1     -19.054 -18.938 -10.589  1.00  0.00     0.082 C 
HETATM   13  I   LIG     1     -19.083 -19.966  -8.706  1.00  0.00    -0.090 I 
ENDBRANCH  11  12
ENDBRANCH   1  11
BRANCH   1  14
HETATM   14  C   LIG     1     -20.132 -16.091 -11.948  1.00  0.00     0.282 C 
HETATM   15  O   LIG     1     -20.709 -16.807 -12.759  1.00  0.00    -0.263 OA
BRANCH  14  16
HETATM   16  O   LIG     1     -19.640 -14.847 -12.210  1.00  0.00    -0.310 OA
BRANCH  16  17
HETATM   17  C   LIG     1     -20.611 -13.856 -12.559  1.00  0.00     0.060 C 
HETATM   18  C   LIG     1     -20.730 -13.804 -14.081  1.00  0.00     0.045 C 
HETATM   19  C   LIG     1     -20.118 -12.517 -12.013  1.00  0.00     0.045 C 
HETATM   20  C   LIG     1     -21.946 -14.237 -11.920  1.00  0.00     0.045 C 
ENDBRANCH  16  17
ENDBRANCH  14  16
ENDBRANCH   1  14
TORSDOF 8
ENDMDL
MODEL 3
REMARK VINA RESULT:      -6.2      4.533      6.339
REMARK  8 active torsions:
REMARK  status: ('A' for Active; 'I' for Inactive)
REMARK    1  A    between atoms: O_2  and  C_7 
REMARK    2  A    between atoms: O_2  and  C_11 
REMARK    3  A    between atoms: O_3  and  C_9 
REMARK    4  A    between atoms: O_3  and  C_19 
REMARK    5  A    between atoms: N_6  and  C_8 
REMARK       I    between atoms: N_6  and  C_19 
REMARK    6  A    between atoms: C_8  and  C_10 
REMARK    7  A    between atoms: C_8  and  C_11 
REMARK    8  A    between atoms: C_10  and  C_18 
ROOT
HETATM    1  C   LIG     1     -21.976 -15.833 -14.134  1.00  0.00     0.187 C 
ENDROOT
BRANCH   1   2
HETATM    2  N   LIG     1     -22.108 -15.061 -15.344  1.00  0.00    -0.323 N 
HETATM    3  C   LIG     1     -22.371 -13.705 -15.365  1.00  0.00     0.362 C 
HETATM    4  O   LIG     1     -22.524 -12.991 -14.379  1.00  0.00    -0.238 OA
HETATM    5  H   LIG     1     -22.012 -15.538 -16.235  1.00  0.00     0.165 HD
BRANCH   3   6
HETATM    6  O   LIG     1     -22.437 -13.267 -16.658  1.00  0.00    -0.294 OA
BRANCH   6   7
HETATM    7  C   LIG     1     -23.754 -13.141 -17.208  1.00  0.00     0.061 C 
HETATM    8  C   LIG     1     -24.026 -11.662 -17.483  1.00  0.00     0.046 C 
HETATM    9  C   LIG     1     -24.738 -13.684 -16.174  1.00  0.00     0.046 C 
HETATM   10  C   LIG     1     -23.823 -13.957 -18.498  1.00  0.00     0.046 C 
ENDBRANCH   6   7
ENDBRANCH   3   6
ENDBRANCH   1   2
BRANCH   1  11
HETATM   11  C   LIG     1     -23.218 -16.700 -13.897  1.00  0.00     0.045 C 
BRANCH  11  12
HETATM   12  C   LIG     1     -23.860 -17.222 -15.188  1.00  0.00     0.082 C 
HETATM   13  I   LIG     1     -24.153 -19.344 -15.072  1.00  0.00    -0.090 I 
ENDBRANCH  11  12
ENDBRANCH   1  11
BRANCH   1  14
HETATM   14  C   LIG     1     -20.698 -16.661 -14.107  1.00  0.00     0.282 C 
HETATM   15  O   LIG     1     -20.699 -17.875 -13.938  1.00  0.00    -0.263 OA
BRANCH  14  16
HETATM   16  O   LIG     1     -19.586 -15.895 -14.292  1.00  0.00    -0.310 OA
BRANCH  16  17
HETATM   17  C   LIG     1     -18.931 -15.451 -13.100  1.00  0.00     0.060 C 
HETATM   18  C   LIG     1     -19.861 -14.490 -12.362  1.00  0.00     0.045 C 
HETATM   19  C   LIG     1     -17.646 -14.740 -13.519  1.00  0.00     0.045 C 
HETATM   20  C   LIG     1     -18.612 -16.672 -12.238  1.00  0.00     0.045 C 
ENDBRANCH  16  17
ENDBRANCH  14  16
ENDBRANCH   1  14
TORSDOF 8
ENDMDL
MODEL 4
REMARK VINA RESULT:      -6.2      3.298      5.060
REMARK  8 active torsions:
REMARK  status: ('A' for Active; 'I' for Inactive)
REMARK    1  A    between atoms: O_2  and  C_7 
REMARK    2  A    between atoms: O_2  and  C_11 
REMARK    3  A    between atoms: O_3  and  C_9 
REMARK    4  A    between atoms: O_3  and  C_19 
REMARK    5  A    between atoms: N_6  and  C_8 
REMARK       I    between atoms: N_6  and  C_19 
REMARK    6  A    between atoms: C_8  and  C_10 
REMARK    7  A    between atoms: C_8  and  C_11 
REMARK    8  A    between atoms: C_10  and  C_18 
ROOT
HETATM    1  C   LIG     1     -20.887 -13.556 -13.211  1.00  0.00     0.187 C 
ENDROOT
BRANCH   1   2
HETATM    2  N   LIG     1     -21.355 -13.031 -14.468  1.00  0.00    -0.323 N 
HETATM    3  C   LIG     1     -21.908 -13.807 -15.468  1.00  0.00     0.362 C 
HETATM    4  O   LIG     1     -22.073 -15.022 -15.421  1.00  0.00    -0.238 OA
HETATM    5  H   LIG     1     -21.266 -12.033 -14.638  1.00  0.00     0.165 HD
BRANCH   3   6
HETATM    6  O   LIG     1     -22.251 -13.018 -16.531  1.00  0.00    -0.294 OA
BRANCH   6   7
HETATM    7  C   LIG     1     -23.623 -13.078 -16.936  1.00  0.00     0.061 C 
HETATM    8  C   LIG     1     -23.760 -14.133 -18.034  1.00  0.00     0.046 C 
HETATM    9  C   LIG     1     -24.007 -11.698 -17.467  1.00  0.00     0.046 C 
HETATM   10  C   LIG     1     -24.475 -13.443 -15.721  1.00  0.00     0.046 C 
ENDBRANCH   6   7
ENDBRANCH   3   6
ENDBRANCH   1   2
BRANCH   1  11
HETATM   11  C   LIG     1     -19.490 -13.020 -12.876  1.00  0.00     0.045 C 
BRANCH  11  12
HETATM   12  C   LIG     1     -18.355 -13.977 -13.260  1.00  0.00     0.082 C 
HETATM   13  I   LIG     1     -19.033 -16.011 -13.181  1.00  0.00    -0.090 I 
ENDBRANCH  11  12
ENDBRANCH   1  11
BRANCH   1  14
HETATM   14  C   LIG     1     -21.871 -13.314 -12.074  1.00  0.00     0.282 C 
HETATM   15  O   LIG     1     -23.017 -12.922 -12.262  1.00  0.00    -0.263 OA
BRANCH  14  16
HETATM   16  O   LIG     1     -21.323 -13.587 -10.856  1.00  0.00    -0.310 OA
BRANCH  16  17
HETATM   17  C   LIG     1     -21.882 -14.705 -10.160  1.00  0.00     0.060 C 
HETATM   18  C   LIG     1     -22.930 -14.192  -9.175  1.00  0.00     0.045 C 
HETATM   19  C   LIG     1     -20.743 -15.401  -9.418  1.00  0.00     0.045 C 
HETATM   20  C   LIG     1     -22.512 -15.650 -11.184  1.00  0.00     0.045 C 
ENDBRANCH  16  17
ENDBRANCH  14  16
ENDBRANCH   1  14
TORSDOF 8
ENDMDL
MODEL 5
REMARK VINA RESULT:      -6.1      2.861      3.932
REMARK  8 active torsions:
REMARK  status: ('A' for Active; 'I' for Inactive)
REMARK    1  A    between atoms: O_2  and  C_7 
REMARK    2  A    between atoms: O_2  and  C_11 
REMARK    3  A    between atoms: O_3  and  C_9 
REMARK    4  A    between atoms: O_3  and  C_19 
REMARK    5  A    between atoms: N_6  and  C_8 
REMARK       I    between atoms: N_6  and  C_19 
REMARK    6  A    between atoms: C_8  and  C_10 
REMARK    7  A    between atoms: C_8  and  C_11 
REMARK    8  A    between atoms: C_10  and  C_18 
ROOT
HETATM    1  C   LIG     1     -21.468 -14.740  -9.666  1.00  0.00     0.187 C 
ENDROOT
BRANCH   1   2
HETATM    2  N   LIG     1     -21.256 -15.757 -10.664  1.00  0.00    -0.323 N 
HETATM    3  C   LIG     1     -20.454 -15.589 -11.775  1.00  0.00     0.362 C 
HETATM    4  O   LIG     1     -19.827 -14.572 -12.057  1.00  0.00    -0.238 OA
HETATM    5  H   LIG     1     -21.729 -16.649 -10.553  1.00  0.00     0.165 HD
BRANCH   3   6
HETATM    6  O   LIG     1     -20.458 -16.730 -12.527  1.00  0.00    -0.294 OA
BRANCH   6   7
HETATM    7  C   LIG     1     -19.181 -17.343 -12.739  1.00  0.00     0.061 C 
HETATM    8  C   LIG     1     -18.450 -16.575 -13.840  1.00  0.00     0.046 C 
HETATM    9  C   LIG     1     -19.430 -18.788 -13.168  1.00  0.00     0.046 C 
HETATM   10  C   LIG     1     -18.396 -17.299 -11.429  1.00  0.00     0.046 C 
ENDBRANCH   6   7
ENDBRANCH   3   6
ENDBRANCH   1   2
BRANCH   1  11
HETATM   11  C   LIG     1     -22.713 -13.904  -9.987  1.00  0.00     0.045 C 
BRANCH  11  12
HETATM   12  C   LIG     1     -22.395 -12.552 -10.638  1.00  0.00     0.082 C 
HETATM   13  I   LIG     1     -23.017 -12.546 -12.691  1.00  0.00    -0.090 I 
ENDBRANCH  11  12
ENDBRANCH   1  11
BRANCH   1  14
HETATM   14  C   LIG     1     -21.520 -15.308  -8.254  1.00  0.00     0.282 C 
HETATM   15  O   LIG     1     -20.513 -15.541  -7.595  1.00  0.00    -0.263 OA
BRANCH  14  16
HETATM   16  O   LIG     1     -22.800 -15.513  -7.831  1.00  0.00    -0.310 OA
BRANCH  16  17
HETATM   17  C   LIG     1     -23.226 -16.878  -7.780  1.00  0.00     0.060 C 
HETATM   18  C   LIG     1     -22.001 -17.777  -7.933  1.00  0.00     0.045 C 
HETATM   19  C   LIG     1     -24.202 -17.098  -8.934  1.00  0.00     0.045 C 
HETATM   20  C   LIG     1     -23.917 -17.122  -6.439  1.00  0.00     0.045 C 
ENDBRANCH  16  17
ENDBRANCH  14  16
ENDBRANCH   1  14
TORSDOF 8
ENDMDL
MODEL 6
REMARK VINA RESULT:      -6.1      4.085      5.986
REMARK  8 active torsions:
REMARK  status: ('A' for Active; 'I' for Inactive)
REMARK    1  A    between atoms: O_2  and  C_7 
REMARK    2  A    between atoms: O_2  and  C_11 
REMARK    3  A    between atoms: O_3  and  C_9 
REMARK    4  A    between atoms: O_3  and  C_19 
REMARK    5  A    between atoms: N_6  and  C_8 
REMARK       I    between atoms: N_6  and  C_19 
REMARK    6  A    between atoms: C_8  and  C_10 
REMARK    7  A    between atoms: C_8  and  C_11 
REMARK    8  A    between atoms: C_10  and  C_18 
ROOT
HETATM    1  C   LIG     1     -21.417 -15.495 -13.715  1.00  0.00     0.187 C 
ENDROOT
BRANCH   1   2
HETATM    2  N   LIG     1     -22.163 -15.127 -14.891  1.00  0.00    -0.323 N 
HETATM    3  C   LIG     1     -21.851 -14.046 -15.693  1.00  0.00     0.362 C 
HETATM    4  O   LIG     1     -20.915 -13.271 -15.516  1.00  0.00    -0.238 OA
HETATM    5  H   LIG     1     -22.972 -15.685 -15.144  1.00  0.00     0.165 HD
BRANCH   3   6
HETATM    6  O   LIG     1     -22.742 -13.962 -16.725  1.00  0.00    -0.294 OA
BRANCH   6   7
HETATM    7  C   LIG     1     -23.942 -13.227 -16.456  1.00  0.00     0.061 C 
HETATM    8  C   LIG     1     -23.817 -12.582 -15.075  1.00  0.00     0.046 C 
HETATM    9  C   LIG     1     -25.104 -14.218 -16.481  1.00  0.00     0.046 C 
HETATM   10  C   LIG     1     -24.116 -12.164 -17.540  1.00  0.00     0.046 C 
ENDBRANCH   6   7
ENDBRANCH   3   6
ENDBRANCH   1   2
BRANCH   1  11
HETATM   11  C   LIG     1     -22.081 -14.944 -12.447  1.00  0.00     0.045 C 
BRANCH  11  12
HETATM   12  C   LIG     1     -21.203 -13.951 -11.675  1.00  0.00     0.082 C 
HETATM   13  I   LIG     1     -22.375 -12.284 -11.002  1.00  0.00    -0.090 I 
ENDBRANCH  11  12
ENDBRANCH   1  11
BRANCH   1  14
HETATM   14  C   LIG     1     -21.180 -16.996 -13.619  1.00  0.00     0.282 C 
HETATM   15  O   LIG     1     -21.533 -17.780 -14.493  1.00  0.00    -0.263 OA
BRANCH  14  16
HETATM   16  O   LIG     1     -20.538 -17.341 -12.467  1.00  0.00    -0.310 OA
BRANCH  16  17
HETATM   17  C   LIG     1     -19.177 -17.758 -12.615  1.00  0.00     0.060 C 
HETATM   18  C   LIG     1     -19.156 -19.251 -12.936  1.00  0.00     0.045 C 
HETATM   19  C   LIG     1     -18.465 -17.482 -11.293  1.00  0.00     0.045 C 
HETATM   20  C   LIG     1     -18.541 -16.949 -13.746  1.00  0.00     0.045 C 
ENDBRANCH  16  17
ENDBRANCH  14  16
ENDBRANCH   1  14
TORSDOF 8
ENDMDL
MODEL 7
REMARK VINA RESULT:      -6.1      4.122      5.963
REMARK  8 active torsions:
REMARK  status: ('A' for Active; 'I' for Inactive)
REMARK    1  A    between atoms: O_2  and  C_7 
REMARK    2  A    between atoms: O_2  and  C_11 
REMARK    3  A    between atoms: O_3  and  C_9 
REMARK    4  A    between atoms: O_3  and  C_19 
REMARK    5  A    between atoms: N_6  and  C_8 
REMARK       I    between atoms: N_6  and  C_19 
REMARK    6  A    between atoms: C_8  and  C_10 
REMARK    7  A    between atoms: C_8  and  C_11 
REMARK    8  A    between atoms: C_10  and  C_18 
ROOT
HETATM    1  C   LIG     1     -22.181 -15.114 -13.332  1.00  0.00     0.187 C 
ENDROOT
BRANCH   1   2
HETATM    2  N   LIG     1     -22.212 -14.602 -14.678  1.00  0.00    -0.323 N 
HETATM    3  C   LIG     1     -22.665 -13.340 -15.011  1.00  0.00     0.362 C 
HETATM    4  O   LIG     1     -23.092 -12.503 -14.221  1.00  0.00    -0.238 OA
HETATM    5  H   LIG     1     -21.893 -15.203 -15.432  1.00  0.00     0.165 HD
BRANCH   3   6
HETATM    6  O   LIG     1     -22.569 -13.154 -16.361  1.00  0.00    -0.294 OA
BRANCH   6   7
HETATM    7  C   LIG     1     -23.806 -13.160 -17.082  1.00  0.00     0.061 C 
HETATM    8  C   LIG     1     -23.634 -14.019 -18.335  1.00  0.00     0.046 C 
HETATM    9  C   LIG     1     -24.124 -11.715 -17.462  1.00  0.00     0.046 C 
HETATM   10  C   LIG     1     -24.896 -13.731 -16.176  1.00  0.00     0.046 C 
ENDBRANCH   6   7
ENDBRANCH   3   6
ENDBRANCH   1   2
BRANCH   1  11
HETATM   11  C   LIG     1     -22.949 -16.438 -13.229  1.00  0.00     0.045 C 
BRANCH  11  12
HETATM   12  C   LIG     1     -23.054 -17.193 -14.559  1.00  0.00     0.082 C 
HETATM   13  I   LIG     1     -25.061 -17.883 -14.871  1.00  0.00    -0.090 I 
ENDBRANCH  11  12
ENDBRANCH   1  11
BRANCH   1  14
HETATM   14  C   LIG     1     -20.765 -15.241 -12.788  1.00  0.00     0.282 C 
HETATM   15  O   LIG     1     -19.978 -14.301 -12.762  1.00  0.00    -0.263 OA
BRANCH  14  16
HETATM   16  O   LIG     1     -20.497 -16.502 -12.344  1.00  0.00    -0.310 OA
BRANCH  16  17
HETATM   17  C   LIG     1     -19.287 -17.089 -12.832  1.00  0.00     0.060 C 
HETATM   18  C   LIG     1     -18.804 -16.280 -14.035  1.00  0.00     0.045 C 
HETATM   19  C   LIG     1     -19.606 -18.525 -13.243  1.00  0.00     0.045 C 
HETATM   20  C   LIG     1     -18.250 -17.069 -11.710  1.00  0.00     0.045 C 
ENDBRANCH  16  17
ENDBRANCH  14  16
ENDBRANCH   1  14
TORSDOF 8
ENDMDL
MODEL 8
REMARK VINA RESULT:      -6.0      2.937      6.238
REMARK  8 active torsions:
REMARK  status: ('A' for Active; 'I' for Inactive)
REMARK    1  A    between atoms: O_2  and  C_7 
REMARK    2  A    between atoms: O_2  and  C_11 
REMARK    3  A    between atoms: O_3  and  C_9 
REMARK    4  A    between atoms: O_3  and  C_19 
REMARK    5  A    between atoms: N_6  and  C_8 
REMARK       I    between atoms: N_6  and  C_19 
REMARK    6  A    between atoms: C_8  and  C_10 
REMARK    7  A    between atoms: C_8  and  C_11 
REMARK    8  A    between atoms: C_10  and  C_18 
ROOT
HETATM    1  C   LIG     1     -20.789 -14.023 -11.896  1.00  0.00     0.187 C 
ENDROOT
BRANCH   1   2
HETATM    2  N   LIG     1     -21.014 -14.940 -10.808  1.00  0.00    -0.323 N 
HETATM    3  C   LIG     1     -22.001 -15.907 -10.809  1.00  0.00     0.362 C 
HETATM    4  O   LIG     1     -22.801 -16.111 -11.717  1.00  0.00    -0.238 OA
HETATM    5  H   LIG     1     -20.422 -14.870  -9.986  1.00  0.00     0.165 HD
BRANCH   3   6
HETATM    6  O   LIG     1     -21.958 -16.613  -9.640  1.00  0.00    -0.294 OA
BRANCH   6   7
HETATM    7  C   LIG     1     -23.025 -16.361  -8.719  1.00  0.00     0.061 C 
HETATM    8  C   LIG     1     -22.586 -16.819  -7.328  1.00  0.00     0.046 C 
HETATM    9  C   LIG     1     -24.238 -17.162  -9.188  1.00  0.00     0.046 C 
HETATM   10  C   LIG     1     -23.333 -14.864  -8.727  1.00  0.00     0.046 C 
ENDBRANCH   6   7
ENDBRANCH   3   6
ENDBRANCH   1   2
BRANCH   1  11
HETATM   11  C   LIG     1     -21.043 -12.575 -11.457  1.00  0.00     0.045 C 
BRANCH  11  12
HETATM   12  C   LIG     1     -22.485 -12.107 -11.688  1.00  0.00     0.082 C 
HETATM   13  I   LIG     1     -23.195 -12.785 -13.595  1.00  0.00    -0.090 I 
ENDBRANCH  11  12
ENDBRANCH   1  11
BRANCH   1  14
HETATM   14  C   LIG     1     -19.412 -14.187 -12.524  1.00  0.00     0.282 C 
HETATM   15  O   LIG     1     -18.814 -13.262 -13.063  1.00  0.00    -0.263 OA
BRANCH  14  16
HETATM   16  O   LIG     1     -18.943 -15.462 -12.406  1.00  0.00    -0.310 OA
BRANCH  16  17
HETATM   17  C   LIG     1     -19.016 -16.262 -13.590  1.00  0.00     0.060 C 
HETATM   18  C   LIG     1     -20.307 -15.920 -14.332  1.00  0.00     0.045 C 
HETATM   19  C   LIG     1     -19.018 -17.726 -13.157  1.00  0.00     0.045 C 
HETATM   20  C   LIG     1     -17.794 -15.960 -14.457  1.00  0.00     0.045 C 
ENDBRANCH  16  17
ENDBRANCH  14  16
ENDBRANCH   1  14
TORSDOF 8
ENDMDL
MODEL 9
REMARK VINA RESULT:      -6.0      3.235      6.540
REMARK  8 active torsions:
REMARK  status: ('A' for Active; 'I' for Inactive)
REMARK    1  A    between atoms: O_2  and  C_7 
REMARK    2  A    between atoms: O_2  and  C_11 
REMARK    3  A    between atoms: O_3  and  C_9 
REMARK    4  A    between atoms: O_3  and  C_19 
REMARK    5  A    between atoms: N_6  and  C_8 
REMARK       I    between atoms: N_6  and  C_19 
REMARK    6  A    between atoms: C_8  and  C_10 
REMARK    7  A    between atoms: C_8  and  C_11 
REMARK    8  A    between atoms: C_10  and  C_18 
ROOT
HETATM    1  C   LIG     1     -21.794 -13.331 -13.440  1.00  0.00     0.187 C 
ENDROOT
BRANCH   1   2
HETATM    2  N   LIG     1     -22.117 -14.139 -12.292  1.00  0.00    -0.323 N 
HETATM    3  C   LIG     1     -21.395 -14.127 -11.114  1.00  0.00     0.362 C 
HETATM    4  O   LIG     1     -20.403 -13.439 -10.892  1.00  0.00    -0.238 OA
HETATM    5  H   LIG     1     -22.915 -14.764 -12.350  1.00  0.00     0.165 HD
BRANCH   3   6
HETATM    6  O   LIG     1     -21.950 -14.999 -10.221  1.00  0.00    -0.294 OA
BRANCH   6   7
HETATM    7  C   LIG     1     -22.540 -14.410  -9.057  1.00  0.00     0.061 C 
HETATM    8  C   LIG     1     -21.460 -14.265  -7.985  1.00  0.00     0.046 C 
HETATM    9  C   LIG     1     -23.648 -15.346  -8.578  1.00  0.00     0.046 C 
HETATM   10  C   LIG     1     -23.114 -13.046  -9.438  1.00  0.00     0.046 C 
ENDBRANCH   6   7
ENDBRANCH   3   6
ENDBRANCH   1   2
BRANCH   1  11
HETATM   11  C   LIG     1     -20.813 -14.059 -14.368  1.00  0.00     0.045 C 
BRANCH  11  12
HETATM   12  C   LIG     1     -19.377 -13.528 -14.282  1.00  0.00     0.082 C 
HETATM   13  I   LIG     1     -18.058 -15.056 -13.556  1.00  0.00    -0.090 I 
ENDBRANCH  11  12
ENDBRANCH   1  11
BRANCH   1  14
HETATM   14  C   LIG     1     -23.032 -12.858 -14.189  1.00  0.00     0.282 C 
HETATM   15  O   LIG     1     -24.013 -12.391 -13.621  1.00  0.00    -0.263 OA
BRANCH  14  16
HETATM   16  O   LIG     1     -22.908 -13.017 -15.537  1.00  0.00    -0.310 OA
BRANCH  16  17
HETATM   17  C   LIG     1     -23.975 -13.719 -16.181  1.00  0.00     0.060 C 
HETATM   18  C   LIG     1     -25.266 -12.926 -15.989  1.00  0.00     0.045 C 
HETATM   19  C   LIG     1     -24.085 -15.093 -15.524  1.00  0.00     0.045 C 
HETATM   20  C   LIG     1     -23.638 -13.860 -17.666  1.00  0.00     0.045 C 
ENDBRANCH  16  17
ENDBRANCH  14  16
ENDBRANCH   1  14
TORSDOF 8
ENDMDL
