MODEL 1
REMARK VINA RESULT:      -6.7      0.000      0.000
REMARK  4 active torsions:
REMARK  status: ('A' for Active; 'I' for Inactive)
REMARK    1  A    between atoms: C_4  and  C_6 
REMARK    2  A    between atoms: C_5  and  C_14 
REMARK    3  A    between atoms: C_7  and  N_16 
REMARK    4  A    between atoms: C_10  and  N_19 
ROOT
HETATM    1  N   LIG     1     -20.816 -13.275 -12.949  1.00  0.00    -0.066 NA
HETATM    2  N   LIG     1     -19.310 -15.141 -12.714  1.00  0.00    -0.045 NA
HETATM    3  C   LIG     1     -21.199 -14.924 -11.235  1.00  0.00     0.048 A 
HETATM    4  C   LIG     1     -21.528 -13.766 -11.914  1.00  0.00     0.080 A 
HETATM    5  C   LIG     1     -20.068 -15.576 -11.684  1.00  0.00     0.153 A 
HETATM    6  C   LIG     1     -19.735 -14.002 -13.291  1.00  0.00     0.722 A 
ENDROOT
BRANCH   3   7
HETATM    7  C   LIG     1     -21.994 -15.412 -10.129  1.00  0.00     0.004 A 
HETATM    8  C   LIG     1     -21.705 -15.003  -8.828  1.00  0.00     0.001 A 
HETATM    9  C   LIG     1     -22.470 -15.474  -7.762  1.00  0.00     0.011 A 
HETATM   10  C   LIG     1     -23.527 -16.355  -7.998  1.00  0.00     0.058 A 
HETATM   11 CL   LIG     1     -24.470 -16.938  -6.683  1.00  0.00    -0.082 Cl
HETATM   12  C   LIG     1     -23.816 -16.764  -9.299  1.00  0.00     0.011 A 
HETATM   13  C   LIG     1     -23.049 -16.293 -10.365  1.00  0.00     0.001 A 
ENDBRANCH   3   7
BRANCH   5  14
HETATM   14  N   LIG     1     -19.667 -16.772 -11.037  1.00  0.00    -0.383 N 
HETATM   15  H   LIG     1     -19.876 -17.636 -11.523  1.00  0.00     0.157 HD
HETATM   16  H   LIG     1     -18.845 -16.757 -10.448  1.00  0.00     0.157 HD
ENDBRANCH   5  14
BRANCH   4  17
HETATM   17  C   LIG     1     -22.729 -12.964 -11.528  1.00  0.00     0.047 C 
HETATM   18  C   LIG     1     -23.410 -12.331 -12.738  1.00  0.00     0.007 C 
ENDBRANCH   4  17
BRANCH   6  19
HETATM   19  N   LIG     1     -18.966 -13.518 -14.372  1.00  0.00    -0.231 N 
HETATM   20  H   LIG     1     -18.778 -14.124 -15.159  1.00  0.00     0.174 HD
HETATM   21  H   LIG     1     -18.612 -12.572 -14.345  1.00  0.00     0.174 HD
ENDBRANCH   6  19
TORSDOF 4
ENDMDL
