MODEL 1
REMARK VINA RESULT:      -7.6      0.000      0.000
REMARK  9 active torsions:
REMARK  status: ('A' for Active; 'I' for Inactive)
REMARK    1  A    between atoms: O_4  and  C_22 
REMARK    2  A    between atoms: O_5  and  C_21 
REMARK    3  A    between atoms: N_6  and  C_12 
REMARK    4  A    between atoms: N_7  and  C_15 
REMARK    5  A    between atoms: N_7  and  C_16 
REMARK    6  A    between atoms: N_8  and  N_9 
REMARK    7  A    between atoms: N_8  and  C_16 
REMARK    8  A    between atoms: C_12  and  C_15 
REMARK    9  A    between atoms: C_17  and  C_18 
ROOT
HETATM    1  N   LIG     1     -18.198 -14.317 -13.323  1.00  0.00    -0.254 N 
HETATM    2  H   LIG     1     -17.303 -13.871 -13.149  1.00  0.00     0.191 HD
ENDROOT
BRANCH   1   3
HETATM    3  N   LIG     1     -18.243 -15.671 -13.354  1.00  0.00    -0.184 NA
HETATM    4  C   LIG     1     -18.863 -16.199 -12.349  1.00  0.00     0.151 C 
BRANCH   4   5
HETATM    5  C   LIG     1     -19.015 -17.658 -12.208  1.00  0.00     0.003 A 
HETATM    6  C   LIG     1     -19.198 -18.393 -13.370  1.00  0.00     0.053 A 
HETATM    7  C   LIG     1     -19.347 -19.777 -13.289  1.00  0.00     0.099 A 
HETATM    8  C   LIG     1     -19.312 -20.411 -12.047  1.00  0.00     0.102 A 
HETATM    9  C   LIG     1     -19.128 -19.660 -10.885  1.00  0.00     0.059 A 
HETATM   10  C   LIG     1     -18.979 -18.276 -10.967  1.00  0.00     0.025 A 
HETATM   11 BR   LIG     1     -18.730 -17.301  -9.357  1.00  0.00    -0.050 Br
BRANCH   7  12
HETATM   12  O   LIG     1     -19.526 -20.500 -14.430  1.00  0.00    -0.358 OA
HETATM   13  H   LIG     1     -19.676 -21.430 -14.186  1.00  0.00     0.217 HD
ENDBRANCH   7  12
BRANCH   8  14
HETATM   14  O   LIG     1     -19.456 -21.763 -11.954  1.00  0.00    -0.353 OA
HETATM   15  C   LIG     1     -18.742 -22.421 -10.911  1.00  0.00     0.210 C 
ENDBRANCH   8  14
ENDBRANCH   4   5
ENDBRANCH   1   3
BRANCH   1  16
HETATM   16  C   LIG     1     -19.337 -13.560 -13.520  1.00  0.00     0.188 C 
HETATM   17  S   LIG     1     -19.940 -12.637 -12.253  1.00  0.00    -0.040 SA
BRANCH  16  18
HETATM   18  N   LIG     1     -19.894 -13.639 -14.793  1.00  0.00    -0.364 N 
HETATM   19  H   LIG     1     -19.248 -13.581 -15.575  1.00  0.00     0.162 HD
BRANCH  18  20
HETATM   20  C   LIG     1     -21.285 -13.800 -15.117  1.00  0.00     0.150 C 
BRANCH  20  21
HETATM   21  C   LIG     1     -21.779 -15.209 -14.851  1.00  0.00     0.254 C 
BRANCH  21  22
HETATM   22  N   LIG     1     -22.805 -15.592 -15.877  1.00  0.00    -0.066 N 
HETATM   23  C   LIG     1     -23.281 -14.401 -16.676  1.00  0.00     0.261 C 
HETATM   24  C   LIG     1     -24.271 -14.890 -17.719  1.00  0.00     0.195 C 
HETATM   25  O   LIG     1     -25.368 -15.558 -17.094  1.00  0.00    -0.388 OA
HETATM   26  C   LIG     1     -24.930 -16.716 -16.381  1.00  0.00     0.195 C 
HETATM   27  C   LIG     1     -23.976 -16.327 -15.265  1.00  0.00     0.261 C 
HETATM   28  H   LIG     1     -22.348 -16.241 -16.531  1.00  0.00     0.280 HD
ENDBRANCH  21  22
ENDBRANCH  20  21
ENDBRANCH  18  20
ENDBRANCH  16  18
ENDBRANCH   1  16
TORSDOF 9
ENDMDL
MODEL 2
REMARK VINA RESULT:      -7.5      5.208      6.859
REMARK  9 active torsions:
REMARK  status: ('A' for Active; 'I' for Inactive)
REMARK    1  A    between atoms: O_4  and  C_22 
REMARK    2  A    between atoms: O_5  and  C_21 
REMARK    3  A    between atoms: N_6  and  C_12 
REMARK    4  A    between atoms: N_7  and  C_15 
REMARK    5  A    between atoms: N_7  and  C_16 
REMARK    6  A    between atoms: N_8  and  N_9 
REMARK    7  A    between atoms: N_8  and  C_16 
REMARK    8  A    between atoms: C_12  and  C_15 
REMARK    9  A    between atoms: C_17  and  C_18 
ROOT
HETATM    1  N   LIG     1     -19.823 -20.839 -14.030  1.00  0.00    -0.254 N 
HETATM    2  H   LIG     1     -19.337 -20.387 -14.798  1.00  0.00     0.191 HD
ENDROOT
BRANCH   1   3
HETATM    3  N   LIG     1     -20.879 -21.635 -14.322  1.00  0.00    -0.184 NA
HETATM    4  C   LIG     1     -21.938 -20.991 -14.689  1.00  0.00     0.151 C 
BRANCH   4   5
HETATM    5  C   LIG     1     -23.188 -21.685 -15.047  1.00  0.00     0.003 A 
HETATM    6  C   LIG     1     -23.170 -23.072 -15.034  1.00  0.00     0.053 A 
HETATM    7  C   LIG     1     -24.328 -23.775 -15.365  1.00  0.00     0.099 A 
HETATM    8  C   LIG     1     -25.491 -23.084 -15.705  1.00  0.00     0.102 A 
HETATM    9  C   LIG     1     -25.495 -21.688 -15.715  1.00  0.00     0.059 A 
HETATM   10  C   LIG     1     -24.337 -20.986 -15.383  1.00  0.00     0.025 A 
HETATM   11 BR   LIG     1     -24.397 -19.089 -15.411  1.00  0.00    -0.050 Br
BRANCH   7  12
HETATM   12  O   LIG     1     -24.311 -25.137 -15.352  1.00  0.00    -0.358 OA
HETATM   13  H   LIG     1     -24.983 -25.449 -14.721  1.00  0.00     0.217 HD
ENDBRANCH   7  12
BRANCH   8  14
HETATM   14  O   LIG     1     -26.629 -23.759 -16.030  1.00  0.00    -0.353 OA
HETATM   15  C   LIG     1     -26.774 -24.168 -17.388  1.00  0.00     0.210 C 
ENDBRANCH   8  14
ENDBRANCH   4   5
ENDBRANCH   1   3
BRANCH   1  16
HETATM   16  C   LIG     1     -19.413 -20.645 -12.725  1.00  0.00     0.188 C 
HETATM   17  S   LIG     1     -19.347 -21.959 -11.681  1.00  0.00    -0.040 SA
BRANCH  16  18
HETATM   18  N   LIG     1     -19.084 -19.335 -12.390  1.00  0.00    -0.364 N 
HETATM   19  H   LIG     1     -18.669 -19.192 -11.474  1.00  0.00     0.162 HD
BRANCH  18  20
HETATM   20  C   LIG     1     -19.264 -18.165 -13.206  1.00  0.00     0.150 C 
BRANCH  20  21
HETATM   21  C   LIG     1     -18.792 -16.901 -12.513  1.00  0.00     0.254 C 
BRANCH  21  22
HETATM   22  N   LIG     1     -19.613 -15.732 -12.972  1.00  0.00    -0.066 N 
HETATM   23  C   LIG     1     -20.272 -15.989 -14.307  1.00  0.00     0.261 C 
HETATM   24  C   LIG     1     -21.120 -14.780 -14.663  1.00  0.00     0.195 C 
HETATM   25  O   LIG     1     -20.315 -13.600 -14.708  1.00  0.00    -0.388 OA
HETATM   26  C   LIG     1     -19.733 -13.323 -13.434  1.00  0.00     0.195 C 
HETATM   27  C   LIG     1     -18.810 -14.452 -13.011  1.00  0.00     0.261 C 
HETATM   28  H   LIG     1     -20.361 -15.599 -12.278  1.00  0.00     0.280 HD
ENDBRANCH  21  22
ENDBRANCH  20  21
ENDBRANCH  18  20
ENDBRANCH  16  18
ENDBRANCH   1  16
TORSDOF 9
ENDMDL
MODEL 3
REMARK VINA RESULT:      -7.5      2.483      3.144
REMARK  9 active torsions:
REMARK  status: ('A' for Active; 'I' for Inactive)
REMARK    1  A    between atoms: O_4  and  C_22 
REMARK    2  A    between atoms: O_5  and  C_21 
REMARK    3  A    between atoms: N_6  and  C_12 
REMARK    4  A    between atoms: N_7  and  C_15 
REMARK    5  A    between atoms: N_7  and  C_16 
REMARK    6  A    between atoms: N_8  and  N_9 
REMARK    7  A    between atoms: N_8  and  C_16 
REMARK    8  A    between atoms: C_12  and  C_15 
REMARK    9  A    between atoms: C_17  and  C_18 
ROOT
HETATM    1  N   LIG     1     -20.274 -15.884 -14.881  1.00  0.00    -0.254 N 
HETATM    2  H   LIG     1     -19.942 -16.463 -15.646  1.00  0.00     0.191 HD
ENDROOT
BRANCH   1   3
HETATM    3  N   LIG     1     -20.157 -16.362 -13.619  1.00  0.00    -0.184 NA
HETATM    4  C   LIG     1     -19.465 -17.451 -13.531  1.00  0.00     0.151 C 
BRANCH   4   5
HETATM    5  C   LIG     1     -19.227 -18.121 -12.241  1.00  0.00     0.003 A 
HETATM    6  C   LIG     1     -18.926 -17.315 -11.152  1.00  0.00     0.053 A 
HETATM    7  C   LIG     1     -18.693 -17.903  -9.909  1.00  0.00     0.099 A 
HETATM    8  C   LIG     1     -18.763 -19.288  -9.768  1.00  0.00     0.102 A 
HETATM    9  C   LIG     1     -19.067 -20.088 -10.870  1.00  0.00     0.059 A 
HETATM   10  C   LIG     1     -19.300 -19.500 -12.113  1.00  0.00     0.025 A 
HETATM   11 BR   LIG     1     -19.710 -20.632 -13.581  1.00  0.00    -0.050 Br
BRANCH   7  12
HETATM   12  O   LIG     1     -18.397 -17.112  -8.840  1.00  0.00    -0.358 OA
HETATM   13  H   LIG     1     -17.636 -16.550  -9.071  1.00  0.00     0.217 HD
ENDBRANCH   7  12
BRANCH   8  14
HETATM   14  O   LIG     1     -18.538 -19.874  -8.558  1.00  0.00    -0.353 OA
HETATM   15  C   LIG     1     -19.681 -20.171  -7.759  1.00  0.00     0.210 C 
ENDBRANCH   8  14
ENDBRANCH   4   5
ENDBRANCH   1   3
BRANCH   1  16
HETATM   16  C   LIG     1     -20.827 -14.641 -15.125  1.00  0.00     0.188 C 
HETATM   17  S   LIG     1     -20.569 -13.397 -14.028  1.00  0.00    -0.040 SA
BRANCH  16  18
HETATM   18  N   LIG     1     -21.572 -14.539 -16.297  1.00  0.00    -0.364 N 
HETATM   19  H   LIG     1     -21.047 -14.515 -17.166  1.00  0.00     0.162 HD
BRANCH  18  20
HETATM   20  C   LIG     1     -23.003 -14.469 -16.405  1.00  0.00     0.150 C 
BRANCH  20  21
HETATM   21  C   LIG     1     -23.702 -15.296 -15.342  1.00  0.00     0.254 C 
BRANCH  21  22
HETATM   22  N   LIG     1     -23.677 -16.746 -15.727  1.00  0.00    -0.066 N 
HETATM   23  C   LIG     1     -24.954 -17.175 -16.409  1.00  0.00     0.261 C 
HETATM   24  C   LIG     1     -24.818 -18.634 -16.808  1.00  0.00     0.195 C 
HETATM   25  O   LIG     1     -24.553 -19.444 -15.661  1.00  0.00    -0.388 OA
HETATM   26  C   LIG     1     -23.318 -19.078 -15.043  1.00  0.00     0.195 C 
HETATM   27  C   LIG     1     -23.373 -17.643 -14.549  1.00  0.00     0.261 C 
HETATM   28  H   LIG     1     -22.910 -16.864 -16.403  1.00  0.00     0.280 HD
ENDBRANCH  21  22
ENDBRANCH  20  21
ENDBRANCH  18  20
ENDBRANCH  16  18
ENDBRANCH   1  16
TORSDOF 9
ENDMDL
MODEL 4
REMARK VINA RESULT:      -7.5      2.181      2.899
REMARK  9 active torsions:
REMARK  status: ('A' for Active; 'I' for Inactive)
REMARK    1  A    between atoms: O_4  and  C_22 
REMARK    2  A    between atoms: O_5  and  C_21 
REMARK    3  A    between atoms: N_6  and  C_12 
REMARK    4  A    between atoms: N_7  and  C_15 
REMARK    5  A    between atoms: N_7  and  C_16 
REMARK    6  A    between atoms: N_8  and  N_9 
REMARK    7  A    between atoms: N_8  and  C_16 
REMARK    8  A    between atoms: C_12  and  C_15 
REMARK    9  A    between atoms: C_17  and  C_18 
ROOT
HETATM    1  N   LIG     1     -20.590 -16.089 -15.136  1.00  0.00    -0.254 N 
HETATM    2  H   LIG     1     -20.157 -16.449 -15.980  1.00  0.00     0.191 HD
ENDROOT
BRANCH   1   3
HETATM    3  N   LIG     1     -20.665 -16.905 -14.057  1.00  0.00    -0.184 NA
HETATM    4  C   LIG     1     -19.515 -17.294 -13.612  1.00  0.00     0.151 C 
BRANCH   4   5
HETATM    5  C   LIG     1     -19.393 -18.185 -12.444  1.00  0.00     0.003 A 
HETATM    6  C   LIG     1     -19.157 -19.530 -12.694  1.00  0.00     0.053 A 
HETATM    7  C   LIG     1     -19.034 -20.413 -11.622  1.00  0.00     0.099 A 
HETATM    8  C   LIG     1     -19.148 -19.944 -10.313  1.00  0.00     0.102 A 
HETATM    9  C   LIG     1     -19.387 -18.590 -10.076  1.00  0.00     0.059 A 
HETATM   10  C   LIG     1     -19.509 -17.706 -11.148  1.00  0.00     0.025 A 
HETATM   11 BR   LIG     1     -19.833 -15.874 -10.772  1.00  0.00    -0.050 Br
BRANCH   7  12
HETATM   12  O   LIG     1     -18.801 -21.734 -11.866  1.00  0.00    -0.358 OA
HETATM   13  H   LIG     1     -19.454 -22.048 -12.515  1.00  0.00     0.217 HD
ENDBRANCH   7  12
BRANCH   8  14
HETATM   14  O   LIG     1     -19.029 -20.798  -9.258  1.00  0.00    -0.353 OA
HETATM   15  C   LIG     1     -19.049 -20.222  -7.954  1.00  0.00     0.210 C 
ENDBRANCH   8  14
ENDBRANCH   4   5
ENDBRANCH   1   3
BRANCH   1  16
HETATM   16  C   LIG     1     -21.086 -14.800 -15.093  1.00  0.00     0.188 C 
HETATM   17  S   LIG     1     -20.278 -13.639 -14.189  1.00  0.00    -0.040 SA
BRANCH  16  18
HETATM   18  N   LIG     1     -22.249 -14.582 -15.826  1.00  0.00    -0.364 N 
HETATM   19  H   LIG     1     -22.133 -14.163 -16.744  1.00  0.00     0.162 HD
BRANCH  18  20
HETATM   20  C   LIG     1     -23.593 -14.894 -15.424  1.00  0.00     0.150 C 
BRANCH  20  21
HETATM   21  C   LIG     1     -24.137 -16.119 -16.135  1.00  0.00     0.254 C 
BRANCH  21  22
HETATM   22  N   LIG     1     -24.070 -17.309 -15.222  1.00  0.00    -0.066 N 
HETATM   23  C   LIG     1     -23.561 -18.541 -15.932  1.00  0.00     0.261 C 
HETATM   24  C   LIG     1     -23.476 -19.674 -14.924  1.00  0.00     0.195 C 
HETATM   25  O   LIG     1     -24.754 -19.914 -14.332  1.00  0.00    -0.388 OA
HETATM   26  C   LIG     1     -25.216 -18.769 -13.614  1.00  0.00     0.195 C 
HETATM   27  C   LIG     1     -25.395 -17.588 -14.551  1.00  0.00     0.261 C 
HETATM   28  H   LIG     1     -23.396 -17.079 -14.479  1.00  0.00     0.280 HD
ENDBRANCH  21  22
ENDBRANCH  20  21
ENDBRANCH  18  20
ENDBRANCH  16  18
ENDBRANCH   1  16
TORSDOF 9
ENDMDL
MODEL 5
REMARK VINA RESULT:      -7.2      2.538      3.044
REMARK  9 active torsions:
REMARK  status: ('A' for Active; 'I' for Inactive)
REMARK    1  A    between atoms: O_4  and  C_22 
REMARK    2  A    between atoms: O_5  and  C_21 
REMARK    3  A    between atoms: N_6  and  C_12 
REMARK    4  A    between atoms: N_7  and  C_15 
REMARK    5  A    between atoms: N_7  and  C_16 
REMARK    6  A    between atoms: N_8  and  N_9 
REMARK    7  A    between atoms: N_8  and  C_16 
REMARK    8  A    between atoms: C_12  and  C_15 
REMARK    9  A    between atoms: C_17  and  C_18 
ROOT
HETATM    1  N   LIG     1     -22.193 -13.623 -11.350  1.00  0.00    -0.254 N 
HETATM    2  H   LIG     1     -22.427 -13.073 -10.531  1.00  0.00     0.191 HD
ENDROOT
BRANCH   1   3
HETATM    3  N   LIG     1     -21.856 -14.923 -11.174  1.00  0.00    -0.184 NA
HETATM    4  C   LIG     1     -20.767 -15.097 -10.498  1.00  0.00     0.151 C 
BRANCH   4   5
HETATM    5  C   LIG     1     -20.240 -16.440 -10.202  1.00  0.00     0.003 A 
HETATM    6  C   LIG     1     -20.703 -17.067  -9.054  1.00  0.00     0.053 A 
HETATM    7  C   LIG     1     -20.233 -18.340  -8.731  1.00  0.00     0.099 A 
HETATM    8  C   LIG     1     -19.306 -18.972  -9.560  1.00  0.00     0.102 A 
HETATM    9  C   LIG     1     -18.848 -18.331 -10.712  1.00  0.00     0.059 A 
HETATM   10  C   LIG     1     -19.318 -17.059 -11.034  1.00  0.00     0.025 A 
HETATM   11 BR   LIG     1     -18.664 -16.231 -12.612  1.00  0.00    -0.050 Br
BRANCH   7  12
HETATM   12  O   LIG     1     -20.688 -18.956  -7.604  1.00  0.00    -0.358 OA
HETATM   13  H   LIG     1     -20.559 -19.915  -7.703  1.00  0.00     0.217 HD
ENDBRANCH   7  12
BRANCH   8  14
HETATM   14  O   LIG     1     -18.840 -20.216  -9.256  1.00  0.00    -0.353 OA
HETATM   15  C   LIG     1     -18.984 -21.224 -10.254  1.00  0.00     0.210 C 
ENDBRANCH   8  14
ENDBRANCH   4   5
ENDBRANCH   1   3
BRANCH   1  16
HETATM   16  C   LIG     1     -22.220 -13.057 -12.611  1.00  0.00     0.188 C 
HETATM   17  S   LIG     1     -23.646 -12.371 -13.173  1.00  0.00    -0.040 SA
BRANCH  16  18
HETATM   18  N   LIG     1     -21.022 -13.114 -13.317  1.00  0.00    -0.364 N 
HETATM   19  H   LIG     1     -20.194 -12.781 -12.832  1.00  0.00     0.162 HD
BRANCH  18  20
HETATM   20  C   LIG     1     -20.833 -13.599 -14.657  1.00  0.00     0.150 C 
BRANCH  20  21
HETATM   21  C   LIG     1     -21.344 -15.017 -14.832  1.00  0.00     0.254 C 
BRANCH  21  22
HETATM   22  N   LIG     1     -22.345 -15.063 -15.950  1.00  0.00    -0.066 N 
HETATM   23  C   LIG     1     -22.410 -13.758 -16.708  1.00  0.00     0.261 C 
HETATM   24  C   LIG     1     -23.404 -13.915 -17.846  1.00  0.00     0.195 C 
HETATM   25  O   LIG     1     -24.690 -14.280 -17.341  1.00  0.00    -0.388 OA
HETATM   26  C   LIG     1     -24.644 -15.539 -16.669  1.00  0.00     0.195 C 
HETATM   27  C   LIG     1     -23.718 -15.470 -15.468  1.00  0.00     0.261 C 
HETATM   28  H   LIG     1     -22.027 -15.788 -16.607  1.00  0.00     0.280 HD
ENDBRANCH  21  22
ENDBRANCH  20  21
ENDBRANCH  18  20
ENDBRANCH  16  18
ENDBRANCH   1  16
TORSDOF 9
ENDMDL
MODEL 6
REMARK VINA RESULT:      -7.2      3.498      4.774
REMARK  9 active torsions:
REMARK  status: ('A' for Active; 'I' for Inactive)
REMARK    1  A    between atoms: O_4  and  C_22 
REMARK    2  A    between atoms: O_5  and  C_21 
REMARK    3  A    between atoms: N_6  and  C_12 
REMARK    4  A    between atoms: N_7  and  C_15 
REMARK    5  A    between atoms: N_7  and  C_16 
REMARK    6  A    between atoms: N_8  and  N_9 
REMARK    7  A    between atoms: N_8  and  C_16 
REMARK    8  A    between atoms: C_12  and  C_15 
REMARK    9  A    between atoms: C_17  and  C_18 
ROOT
HETATM    1  N   LIG     1     -20.497 -15.941 -15.014  1.00  0.00    -0.254 N 
HETATM    2  H   LIG     1     -20.319 -16.502 -15.841  1.00  0.00     0.191 HD
ENDROOT
BRANCH   1   3
HETATM    3  N   LIG     1     -20.491 -16.559 -13.808  1.00  0.00    -0.184 NA
HETATM    4  C   LIG     1     -19.376 -17.151 -13.527  1.00  0.00     0.151 C 
BRANCH   4   5
HETATM    5  C   LIG     1     -19.178 -17.877 -12.260  1.00  0.00     0.003 A 
HETATM    6  C   LIG     1     -18.892 -17.120 -11.133  1.00  0.00     0.053 A 
HETATM    7  C   LIG     1     -18.696 -17.761  -9.910  1.00  0.00     0.099 A 
HETATM    8  C   LIG     1     -18.789 -19.151  -9.827  1.00  0.00     0.102 A 
HETATM    9  C   LIG     1     -19.077 -19.900 -10.968  1.00  0.00     0.059 A 
HETATM   10  C   LIG     1     -19.273 -19.259 -12.191  1.00  0.00     0.025 A 
HETATM   11 BR   LIG     1     -19.664 -20.324 -13.713  1.00  0.00    -0.050 Br
BRANCH   7  12
HETATM   12  O   LIG     1     -18.416 -17.019  -8.802  1.00  0.00    -0.358 OA
HETATM   13  H   LIG     1     -19.218 -16.530  -8.547  1.00  0.00     0.217 HD
ENDBRANCH   7  12
BRANCH   8  14
HETATM   14  O   LIG     1     -18.601 -19.788  -8.638  1.00  0.00    -0.353 OA
HETATM   15  C   LIG     1     -19.762 -20.062  -7.858  1.00  0.00     0.210 C 
ENDBRANCH   8  14
ENDBRANCH   4   5
ENDBRANCH   1   3
BRANCH   1  16
HETATM   16  C   LIG     1     -20.736 -14.584 -15.120  1.00  0.00     0.188 C 
HETATM   17  S   LIG     1     -22.147 -14.055 -15.861  1.00  0.00    -0.040 SA
BRANCH  16  18
HETATM   18  N   LIG     1     -19.751 -13.759 -14.586  1.00  0.00    -0.364 N 
HETATM   19  H   LIG     1     -18.937 -13.590 -15.169  1.00  0.00     0.162 HD
BRANCH  18  20
HETATM   20  C   LIG     1     -19.768 -13.117 -13.300  1.00  0.00     0.150 C 
BRANCH  20  21
HETATM   21  C   LIG     1     -21.155 -13.095 -12.686  1.00  0.00     0.254 C 
BRANCH  21  22
HETATM   22  N   LIG     1     -21.082 -13.519 -11.248  1.00  0.00    -0.066 N 
HETATM   23  C   LIG     1     -21.825 -14.809 -10.997  1.00  0.00     0.261 C 
HETATM   24  C   LIG     1     -21.652 -15.185  -9.535  1.00  0.00     0.195 C 
HETATM   25  O   LIG     1     -22.138 -14.142  -8.689  1.00  0.00    -0.388 OA
HETATM   26  C   LIG     1     -21.403 -12.933  -8.884  1.00  0.00     0.195 C 
HETATM   27  C   LIG     1     -21.562 -12.435 -10.310  1.00  0.00     0.261 C 
HETATM   28  H   LIG     1     -20.089 -13.686 -11.034  1.00  0.00     0.280 HD
ENDBRANCH  21  22
ENDBRANCH  20  21
ENDBRANCH  18  20
ENDBRANCH  16  18
ENDBRANCH   1  16
TORSDOF 9
ENDMDL
MODEL 7
REMARK VINA RESULT:      -7.1      3.501      4.392
REMARK  9 active torsions:
REMARK  status: ('A' for Active; 'I' for Inactive)
REMARK    1  A    between atoms: O_4  and  C_22 
REMARK    2  A    between atoms: O_5  and  C_21 
REMARK    3  A    between atoms: N_6  and  C_12 
REMARK    4  A    between atoms: N_7  and  C_15 
REMARK    5  A    between atoms: N_7  and  C_16 
REMARK    6  A    between atoms: N_8  and  N_9 
REMARK    7  A    between atoms: N_8  and  C_16 
REMARK    8  A    between atoms: C_12  and  C_15 
REMARK    9  A    between atoms: C_17  and  C_18 
ROOT
HETATM    1  N   LIG     1     -20.319 -15.142  -7.899  1.00  0.00    -0.254 N 
HETATM    2  H   LIG     1     -19.604 -15.351  -7.210  1.00  0.00     0.191 HD
ENDROOT
BRANCH   1   3
HETATM    3  N   LIG     1     -20.399 -15.932  -8.997  1.00  0.00    -0.184 NA
HETATM    4  C   LIG     1     -19.404 -16.746  -9.133  1.00  0.00     0.151 C 
BRANCH   4   5
HETATM    5  C   LIG     1     -19.314 -17.684 -10.266  1.00  0.00     0.003 A 
HETATM    6  C   LIG     1     -19.302 -17.139 -11.542  1.00  0.00     0.053 A 
HETATM    7  C   LIG     1     -19.219 -17.986 -12.647  1.00  0.00     0.099 A 
HETATM    8  C   LIG     1     -19.147 -19.367 -12.464  1.00  0.00     0.102 A 
HETATM    9  C   LIG     1     -19.160 -19.902 -11.175  1.00  0.00     0.059 A 
HETATM   10  C   LIG     1     -19.244 -19.055 -10.071  1.00  0.00     0.025 A 
HETATM   11 BR   LIG     1     -19.257 -19.833  -8.339  1.00  0.00    -0.050 Br
BRANCH   7  12
HETATM   12  O   LIG     1     -19.206 -17.452 -13.900  1.00  0.00    -0.358 OA
HETATM   13  H   LIG     1     -19.170 -18.180 -14.546  1.00  0.00     0.217 HD
ENDBRANCH   7  12
BRANCH   8  14
HETATM   14  O   LIG     1     -19.064 -20.205 -13.536  1.00  0.00    -0.353 OA
HETATM   15  C   LIG     1     -19.928 -21.339 -13.540  1.00  0.00     0.210 C 
ENDBRANCH   8  14
ENDBRANCH   4   5
ENDBRANCH   1   3
BRANCH   1  16
HETATM   16  C   LIG     1     -21.185 -14.081  -7.717  1.00  0.00     0.188 C 
HETATM   17  S   LIG     1     -20.747 -12.830  -6.687  1.00  0.00    -0.040 SA
BRANCH  16  18
HETATM   18  N   LIG     1     -22.379 -14.156  -8.428  1.00  0.00    -0.364 N 
HETATM   19  H   LIG     1     -23.067 -14.823  -8.090  1.00  0.00     0.162 HD
BRANCH  18  20
HETATM   20  C   LIG     1     -22.743 -13.384  -9.585  1.00  0.00     0.150 C 
BRANCH  20  21
HETATM   21  C   LIG     1     -21.538 -12.762 -10.265  1.00  0.00     0.254 C 
BRANCH  21  22
HETATM   22  N   LIG     1     -21.097 -13.627 -11.410  1.00  0.00    -0.066 N 
HETATM   23  C   LIG     1     -20.074 -12.937 -12.281  1.00  0.00     0.261 C 
HETATM   24  C   LIG     1     -19.649 -13.901 -13.375  1.00  0.00     0.195 C 
HETATM   25  O   LIG     1     -20.779 -14.316 -14.143  1.00  0.00    -0.388 OA
HETATM   26  C   LIG     1     -21.725 -15.017 -13.334  1.00  0.00     0.195 C 
HETATM   27  C   LIG     1     -22.263 -14.113 -12.238  1.00  0.00     0.261 C 
HETATM   28  H   LIG     1     -20.647 -14.458 -11.002  1.00  0.00     0.280 HD
ENDBRANCH  21  22
ENDBRANCH  20  21
ENDBRANCH  18  20
ENDBRANCH  16  18
ENDBRANCH   1  16
TORSDOF 9
ENDMDL
MODEL 8
REMARK VINA RESULT:      -7.1      4.084      7.375
REMARK  9 active torsions:
REMARK  status: ('A' for Active; 'I' for Inactive)
REMARK    1  A    between atoms: O_4  and  C_22 
REMARK    2  A    between atoms: O_5  and  C_21 
REMARK    3  A    between atoms: N_6  and  C_12 
REMARK    4  A    between atoms: N_7  and  C_15 
REMARK    5  A    between atoms: N_7  and  C_16 
REMARK    6  A    between atoms: N_8  and  N_9 
REMARK    7  A    between atoms: N_8  and  C_16 
REMARK    8  A    between atoms: C_12  and  C_15 
REMARK    9  A    between atoms: C_17  and  C_18 
ROOT
HETATM    1  N   LIG     1     -18.264 -16.152 -11.908  1.00  0.00    -0.254 N 
HETATM    2  H   LIG     1     -17.390 -15.682 -11.699  1.00  0.00     0.191 HD
ENDROOT
BRANCH   1   3
HETATM    3  N   LIG     1     -19.059 -15.627 -12.871  1.00  0.00    -0.184 NA
HETATM    4  C   LIG     1     -20.070 -14.964 -12.414  1.00  0.00     0.151 C 
BRANCH   4   5
HETATM    5  C   LIG     1     -21.048 -14.318 -13.309  1.00  0.00     0.003 A 
HETATM    6  C   LIG     1     -20.943 -14.590 -14.666  1.00  0.00     0.053 A 
HETATM    7  C   LIG     1     -21.844 -14.003 -15.553  1.00  0.00     0.099 A 
HETATM    8  C   LIG     1     -22.841 -13.152 -15.075  1.00  0.00     0.102 A 
HETATM    9  C   LIG     1     -22.935 -12.887 -13.708  1.00  0.00     0.059 A 
HETATM   10  C   LIG     1     -22.034 -13.474 -12.821  1.00  0.00     0.025 A 
HETATM   11 BR   LIG     1     -22.206 -13.082 -10.971  1.00  0.00    -0.050 Br
BRANCH   7  12
HETATM   12  O   LIG     1     -21.742 -14.269 -16.885  1.00  0.00    -0.358 OA
HETATM   13  H   LIG     1     -21.360 -13.491 -17.328  1.00  0.00     0.217 HD
ENDBRANCH   7  12
BRANCH   8  14
HETATM   14  O   LIG     1     -23.728 -12.573 -15.932  1.00  0.00    -0.353 OA
HETATM   15  C   LIG     1     -25.009 -13.187 -16.050  1.00  0.00     0.210 C 
ENDBRANCH   8  14
ENDBRANCH   4   5
ENDBRANCH   1   3
BRANCH   1  16
HETATM   16  C   LIG     1     -18.629 -17.297 -11.227  1.00  0.00     0.188 C 
HETATM   17  S   LIG     1     -19.066 -18.666 -12.097  1.00  0.00    -0.040 SA
BRANCH  16  18
HETATM   18  N   LIG     1     -18.600 -17.203  -9.839  1.00  0.00    -0.364 N 
HETATM   19  H   LIG     1     -17.744 -17.503  -9.383  1.00  0.00     0.162 HD
BRANCH  18  20
HETATM   20  C   LIG     1     -19.650 -16.718  -8.986  1.00  0.00     0.150 C 
BRANCH  20  21
HETATM   21  C   LIG     1     -21.028 -17.068  -9.515  1.00  0.00     0.254 C 
BRANCH  21  22
HETATM   22  N   LIG     1     -22.070 -16.721  -8.490  1.00  0.00    -0.066 N 
HETATM   23  C   LIG     1     -22.071 -17.690  -7.331  1.00  0.00     0.261 C 
HETATM   24  C   LIG     1     -23.113 -17.231  -6.326  1.00  0.00     0.195 C 
HETATM   25  O   LIG     1     -24.402 -17.163  -6.937  1.00  0.00    -0.388 OA
HETATM   26  C   LIG     1     -24.421 -16.209  -8.000  1.00  0.00     0.195 C 
HETATM   27  C   LIG     1     -23.450 -16.611  -9.096  1.00  0.00     0.261 C 
HETATM   28  H   LIG     1     -21.827 -15.793  -8.118  1.00  0.00     0.280 HD
ENDBRANCH  21  22
ENDBRANCH  20  21
ENDBRANCH  18  20
ENDBRANCH  16  18
ENDBRANCH   1  16
TORSDOF 9
ENDMDL
MODEL 9
REMARK VINA RESULT:      -7.0      2.932      3.574
REMARK  9 active torsions:
REMARK  status: ('A' for Active; 'I' for Inactive)
REMARK    1  A    between atoms: O_4  and  C_22 
REMARK    2  A    between atoms: O_5  and  C_21 
REMARK    3  A    between atoms: N_6  and  C_12 
REMARK    4  A    between atoms: N_7  and  C_15 
REMARK    5  A    between atoms: N_7  and  C_16 
REMARK    6  A    between atoms: N_8  and  N_9 
REMARK    7  A    between atoms: N_8  and  C_16 
REMARK    8  A    between atoms: C_12  and  C_15 
REMARK    9  A    between atoms: C_17  and  C_18 
ROOT
HETATM    1  N   LIG     1     -20.878 -14.209 -10.702  1.00  0.00    -0.254 N 
HETATM    2  H   LIG     1     -20.269 -13.775 -11.388  1.00  0.00     0.191 HD
ENDROOT
BRANCH   1   3
HETATM    3  N   LIG     1     -20.851 -15.558 -10.583  1.00  0.00    -0.184 NA
HETATM    4  C   LIG     1     -19.682 -16.078 -10.767  1.00  0.00     0.151 C 
BRANCH   4   5
HETATM    5  C   LIG     1     -19.453 -17.531 -10.678  1.00  0.00     0.003 A 
HETATM    6  C   LIG     1     -19.454 -18.098  -9.412  1.00  0.00     0.053 A 
HETATM    7  C   LIG     1     -19.242 -19.469  -9.275  1.00  0.00     0.099 A 
HETATM    8  C   LIG     1     -19.031 -20.259 -10.406  1.00  0.00     0.102 A 
HETATM    9  C   LIG     1     -19.031 -19.676 -11.674  1.00  0.00     0.059 A 
HETATM   10  C   LIG     1     -19.244 -18.305 -11.810  1.00  0.00     0.025 A 
HETATM   11 BR   LIG     1     -19.235 -17.562 -13.557  1.00  0.00    -0.050 Br
BRANCH   7  12
HETATM   12  O   LIG     1     -19.244 -20.027  -8.032  1.00  0.00    -0.358 OA
HETATM   13  H   LIG     1     -20.123 -19.894  -7.635  1.00  0.00     0.217 HD
ENDBRANCH   7  12
BRANCH   8  14
HETATM   14  O   LIG     1     -18.823 -21.600 -10.286  1.00  0.00    -0.353 OA
HETATM   15  C   LIG     1     -19.091 -22.403 -11.433  1.00  0.00     0.210 C 
ENDBRANCH   8  14
ENDBRANCH   4   5
ENDBRANCH   1   3
BRANCH   1  16
HETATM   16  C   LIG     1     -21.711 -13.439  -9.913  1.00  0.00     0.188 C 
HETATM   17  S   LIG     1     -21.452 -13.385  -8.255  1.00  0.00    -0.040 SA
BRANCH  16  18
HETATM   18  N   LIG     1     -22.720 -12.761 -10.591  1.00  0.00    -0.364 N 
HETATM   19  H   LIG     1     -23.655 -12.834 -10.202  1.00  0.00     0.162 HD
BRANCH  18  20
HETATM   20  C   LIG     1     -22.575 -11.964 -11.779  1.00  0.00     0.150 C 
BRANCH  20  21
HETATM   21  C   LIG     1     -23.628 -12.288 -12.822  1.00  0.00     0.254 C 
BRANCH  21  22
HETATM   22  N   LIG     1     -22.979 -12.452 -14.166  1.00  0.00    -0.066 N 
HETATM   23  C   LIG     1     -23.972 -12.856 -15.230  1.00  0.00     0.261 C 
HETATM   24  C   LIG     1     -23.240 -12.944 -16.558  1.00  0.00     0.195 C 
HETATM   25  O   LIG     1     -22.166 -13.883 -16.476  1.00  0.00    -0.388 OA
HETATM   26  C   LIG     1     -21.197 -13.477 -15.509  1.00  0.00     0.195 C 
HETATM   27  C   LIG     1     -21.818 -13.418 -14.124  1.00  0.00     0.261 C 
HETATM   28  H   LIG     1     -22.599 -11.532 -14.429  1.00  0.00     0.280 HD
ENDBRANCH  21  22
ENDBRANCH  20  21
ENDBRANCH  18  20
ENDBRANCH  16  18
ENDBRANCH   1  16
TORSDOF 9
ENDMDL
