MODEL 1
REMARK VINA RESULT:      -9.6      0.000      0.000
REMARK  3 active torsions:
REMARK  status: ('A' for Active; 'I' for Inactive)
REMARK    1  A    between atoms: C_4  and  O_11 
REMARK    2  A    between atoms: O_11  and  C_12 
REMARK    3  A    between atoms: C_12  and  C_13 
ROOT
HETATM    1  N   LIG     1     -20.741 -14.518 -10.102  1.00  0.00    -0.244 NA
HETATM    2  C   LIG     1     -22.403 -15.552  -8.698  1.00  0.00     0.018 A 
HETATM    3  C   LIG     1     -21.166 -15.568  -9.374  1.00  0.00     0.083 A 
HETATM    4  C   LIG     1     -20.787 -17.817  -8.525  1.00  0.00     0.096 A 
HETATM    5  C   LIG     1     -20.377 -16.710  -9.272  1.00  0.00     0.043 A 
HETATM    6  C   LIG     1     -22.816 -16.667  -7.948  1.00  0.00     0.004 A 
HETATM    7  C   LIG     1     -22.008 -17.796  -7.862  1.00  0.00     0.024 A 
HETATM    8  C   LIG     1     -23.198 -14.402  -8.801  1.00  0.00     0.003 A 
HETATM    9  C   LIG     1     -22.763 -13.318  -9.550  1.00  0.00     0.021 A 
HETATM   10  C   LIG     1     -21.537 -13.427 -10.176  1.00  0.00     0.099 A 
ENDROOT
BRANCH   4  11
HETATM   11  O   LIG     1     -19.989 -18.918  -8.448  1.00  0.00    -0.326 OA
BRANCH  11  12
HETATM   12  C   LIG     1     -18.813 -18.925  -9.254  1.00  0.00     0.175 C 
BRANCH  12  13
HETATM   13  C   LIG     1     -19.004 -19.886 -10.391  1.00  0.00     0.008 A 
HETATM   14  C   LIG     1     -19.120 -19.400 -11.690  1.00  0.00    -0.002 A 
HETATM   15  C   LIG     1     -19.298 -20.294 -12.747  1.00  0.00    -0.000 A 
HETATM   16  C   LIG     1     -19.358 -21.665 -12.499  1.00  0.00    -0.000 A 
HETATM   17  C   LIG     1     -19.241 -22.143 -11.194  1.00  0.00    -0.000 A 
HETATM   18  C   LIG     1     -19.063 -21.251 -10.137  1.00  0.00    -0.002 A 
ENDBRANCH  12  13
ENDBRANCH  11  12
ENDBRANCH   4  11
TORSDOF 3
ENDMDL
