MODEL 1
REMARK VINA RESULT:      -8.7      0.000      0.000
REMARK  3 active torsions:
REMARK  status: ('A' for Active; 'I' for Inactive)
REMARK    1  A    between atoms: C_4  and  O_11 
REMARK    2  A    between atoms: O_11  and  C_12 
REMARK    3  A    between atoms: C_12  and  C_13 
ROOT
HETATM    1  N   LIG     1     -19.238 -20.652  -9.667  1.00  0.00    -0.244 NA
HETATM    2  C   LIG     1     -19.315 -18.922 -11.341  1.00  0.00     0.018 A 
HETATM    3  C   LIG     1     -19.343 -19.352  -9.998  1.00  0.00     0.083 A 
HETATM    4  C   LIG     1     -19.595 -17.030  -9.311  1.00  0.00     0.096 A 
HETATM    5  C   LIG     1     -19.484 -18.388  -9.004  1.00  0.00     0.043 A 
HETATM    6  C   LIG     1     -19.428 -17.555 -11.650  1.00  0.00     0.004 A 
HETATM    7  C   LIG     1     -19.567 -16.613 -10.636  1.00  0.00     0.024 A 
HETATM    8  C   LIG     1     -19.174 -19.891 -12.342  1.00  0.00     0.003 A 
HETATM    9  C   LIG     1     -19.065 -21.233 -12.004  1.00  0.00     0.021 A 
HETATM   10  C   LIG     1     -19.103 -21.557 -10.663  1.00  0.00     0.099 A 
ENDROOT
BRANCH   4  11
HETATM   11  O   LIG     1     -19.732 -16.115  -8.312  1.00  0.00    -0.326 OA
BRANCH  11  12
HETATM   12  C   LIG     1     -20.803 -15.181  -8.430  1.00  0.00     0.175 C 
BRANCH  12  13
HETATM   13  C   LIG     1     -22.064 -15.815  -7.922  1.00  0.00     0.008 A 
HETATM   14  C   LIG     1     -22.031 -16.578  -6.760  1.00  0.00    -0.002 A 
HETATM   15  C   LIG     1     -23.205 -17.168  -6.288  1.00  0.00    -0.000 A 
HETATM   16  C   LIG     1     -24.402 -16.990  -6.981  1.00  0.00    -0.000 A 
HETATM   17  C   LIG     1     -24.427 -16.223  -8.145  1.00  0.00    -0.000 A 
HETATM   18  C   LIG     1     -23.255 -15.633  -8.617  1.00  0.00    -0.002 A 
ENDBRANCH  12  13
ENDBRANCH  11  12
ENDBRANCH   4  11
TORSDOF 3
ENDMDL
