MODEL 1
REMARK VINA RESULT:     -10.2      0.000      0.000
REMARK  13 active torsions:
REMARK  status: ('A' for Active; 'I' for Inactive)
REMARK    1  A    between atoms: O_1  and  C_12 
REMARK    2  A    between atoms: O_1  and  C_17 
REMARK    3  A    between atoms: N_5  and  C_18 
REMARK       I    between atoms: N_5  and  C_32 
REMARK    4  A    between atoms: C_6  and  C_11 
REMARK    5  A    between atoms: C_6  and  C_12 
REMARK    6  A    between atoms: C_9  and  C_14 
REMARK    7  A    between atoms: C_11  and  C_13 
REMARK    8  A    between atoms: C_13  and  C_15 
REMARK    9  A    between atoms: C_15  and  C_16 
REMARK   10  A    between atoms: C_16  and  C_18 
REMARK   11  A    between atoms: C_17  and  C_21 
REMARK   12  A    between atoms: C_17  and  C_22 
REMARK   13  A    between atoms: C_17  and  C_23 
ROOT
HETATM    1  C   LIG     1     -22.008 -15.195  -9.635  1.00  0.00    -0.018 C 
HETATM    2  C   LIG     1     -20.928 -14.527  -8.770  1.00  0.00     0.024 C 
HETATM    3  C   LIG     1     -23.247 -14.351  -9.303  1.00  0.00     0.012 C 
HETATM    4  C   LIG     1     -21.254 -13.021  -8.806  1.00  0.00     0.056 C 
HETATM    5  C   LIG     1     -22.734 -12.914  -9.217  1.00  0.00     0.013 C 
ENDROOT
BRANCH   1   6
HETATM    6  C   LIG     1     -22.211 -16.662  -9.249  1.00  0.00     0.012 C 
BRANCH   6   7
HETATM    7  C   LIG     1     -21.287 -17.072  -8.101  1.00  0.00     0.001 C 
BRANCH   7   8
HETATM    8  C   LIG     1     -20.825 -18.525  -8.255  1.00  0.00     0.006 C 
BRANCH   8   9
HETATM    9  C   LIG     1     -19.658 -18.703  -9.255  1.00  0.00     0.004 C 
HETATM   10  C   LIG     1     -18.803 -17.432  -9.355  1.00  0.00     0.012 C 
BRANCH   9  11
HETATM   11  C   LIG     1     -18.830 -19.967  -8.899  1.00  0.00     0.084 C 
HETATM   12  C   LIG     1     -18.998 -20.403  -7.445  1.00  0.00     0.032 C 
BRANCH  11  13
HETATM   13  N   LIG     1     -19.104 -21.077  -9.780  1.00  0.00    -0.357 N 
HETATM   14  C   LIG     1     -19.130 -20.962 -11.159  1.00  0.00     0.213 C 
HETATM   15  O   LIG     1     -18.932 -19.933 -11.800  1.00  0.00    -0.274 OA
HETATM   16  C   LIG     1     -19.415 -22.276 -11.836  1.00  0.00     0.117 C 
HETATM   17  H   LIG     1     -19.210 -22.000  -9.369  1.00  0.00     0.162 HD
ENDBRANCH  11  13
ENDBRANCH   9  11
ENDBRANCH   8   9
ENDBRANCH   7   8
ENDBRANCH   6   7
ENDBRANCH   1   6
BRANCH   1  18
HETATM   18  C   LIG     1     -21.656 -15.111 -11.129  1.00  0.00     0.179 C 
BRANCH  18  19
HETATM   19  O   LIG     1     -22.673 -15.767 -11.857  1.00  0.00    -0.365 OA
BRANCH  19  20
HETATM   20  C   LIG     1     -22.384 -15.812 -13.251  1.00  0.00     0.142 C 
BRANCH  20  21
HETATM   21  C   LIG     1     -20.847 -15.822 -13.407  1.00  0.00    -0.015 A 
HETATM   22  C   LIG     1     -20.102 -16.888 -12.904  1.00  0.00     0.011 A 
HETATM   23  C   LIG     1     -18.714 -16.898 -13.046  1.00  0.00     0.001 A 
HETATM   24  C   LIG     1     -18.072 -15.842 -13.690  1.00  0.00     0.000 A 
HETATM   25  C   LIG     1     -18.817 -14.774 -14.193  1.00  0.00     0.001 A 
HETATM   26  C   LIG     1     -20.204 -14.765 -14.051  1.00  0.00     0.011 A 
ENDBRANCH  20  21
BRANCH  20  27
HETATM   27  C   LIG     1     -23.064 -17.101 -13.761  1.00  0.00    -0.015 A 
HETATM   28  C   LIG     1     -24.313 -17.474 -13.265  1.00  0.00     0.011 A 
HETATM   29  C   LIG     1     -24.927 -18.638 -13.726  1.00  0.00     0.001 A 
HETATM   30  C   LIG     1     -24.293 -19.429 -14.683  1.00  0.00     0.000 A 
HETATM   31  C   LIG     1     -23.045 -19.056 -15.180  1.00  0.00     0.001 A 
HETATM   32  C   LIG     1     -22.430 -17.892 -14.719  1.00  0.00     0.011 A 
ENDBRANCH  20  27
BRANCH  20  33
HETATM   33  C   LIG     1     -23.036 -14.539 -13.835  1.00  0.00    -0.015 A 
HETATM   34  C   LIG     1     -23.592 -14.563 -15.113  1.00  0.00     0.011 A 
HETATM   35  C   LIG     1     -24.182 -13.414 -15.639  1.00  0.00     0.001 A 
HETATM   36  C   LIG     1     -24.215 -12.239 -14.888  1.00  0.00     0.000 A 
HETATM   37  C   LIG     1     -23.659 -12.215 -13.608  1.00  0.00     0.001 A 
HETATM   38  C   LIG     1     -23.069 -13.364 -13.082  1.00  0.00     0.011 A 
ENDBRANCH  20  33
ENDBRANCH  19  20
ENDBRANCH  18  19
ENDBRANCH   1  18
BRANCH   4  39
HETATM   39  C   LIG     1     -20.933 -12.321  -7.500  1.00  0.00     0.107 A 
HETATM   40  N   LIG     1     -21.920 -11.800  -6.710  1.00  0.00    -0.353 N 
HETATM   41  C   LIG     1     -21.319 -11.241  -5.618  1.00  0.00     0.109 A 
HETATM   42  H   LIG     1     -22.914 -11.824  -6.897  1.00  0.00     0.166 HD
HETATM   43  C   LIG     1     -19.975 -11.456  -5.808  1.00  0.00     0.135 A 
HETATM   44  N   LIG     1     -19.740 -12.127  -6.982  1.00  0.00    -0.246 NA
ENDBRANCH   4  39
TORSDOF 13
ENDMDL
MODEL 2
REMARK VINA RESULT:     -10.1      0.093      3.467
REMARK  13 active torsions:
REMARK  status: ('A' for Active; 'I' for Inactive)
REMARK    1  A    between atoms: O_1  and  C_12 
REMARK    2  A    between atoms: O_1  and  C_17 
REMARK    3  A    between atoms: N_5  and  C_18 
REMARK       I    between atoms: N_5  and  C_32 
REMARK    4  A    between atoms: C_6  and  C_11 
REMARK    5  A    between atoms: C_6  and  C_12 
REMARK    6  A    between atoms: C_9  and  C_14 
REMARK    7  A    between atoms: C_11  and  C_13 
REMARK    8  A    between atoms: C_13  and  C_15 
REMARK    9  A    between atoms: C_15  and  C_16 
REMARK   10  A    between atoms: C_16  and  C_18 
REMARK   11  A    between atoms: C_17  and  C_21 
REMARK   12  A    between atoms: C_17  and  C_22 
REMARK   13  A    between atoms: C_17  and  C_23 
ROOT
HETATM    1  C   LIG     1     -22.001 -15.177  -9.598  1.00  0.00    -0.018 C 
HETATM    2  C   LIG     1     -20.911 -14.510  -8.745  1.00  0.00     0.024 C 
HETATM    3  C   LIG     1     -23.231 -14.319  -9.271  1.00  0.00     0.012 C 
HETATM    4  C   LIG     1     -21.223 -13.002  -8.796  1.00  0.00     0.056 C 
HETATM    5  C   LIG     1     -22.704 -12.886  -9.204  1.00  0.00     0.013 C 
ENDROOT
BRANCH   1   6
HETATM    6  C   LIG     1     -22.216 -16.638  -9.195  1.00  0.00     0.012 C 
BRANCH   6   7
HETATM    7  C   LIG     1     -21.242 -17.065  -8.095  1.00  0.00     0.001 C 
BRANCH   7   8
HETATM    8  C   LIG     1     -20.817 -18.527  -8.270  1.00  0.00     0.006 C 
BRANCH   8   9
HETATM    9  C   LIG     1     -19.649 -18.719  -9.265  1.00  0.00     0.004 C 
HETATM   10  C   LIG     1     -18.774 -17.462  -9.356  1.00  0.00     0.012 C 
BRANCH   9  11
HETATM   11  C   LIG     1     -18.842 -19.997  -8.909  1.00  0.00     0.084 C 
HETATM   12  C   LIG     1     -19.004 -20.422  -7.452  1.00  0.00     0.032 C 
BRANCH  11  13
HETATM   13  N   LIG     1     -19.146 -21.107  -9.781  1.00  0.00    -0.357 N 
HETATM   14  C   LIG     1     -19.143 -21.009 -11.162  1.00  0.00     0.213 C 
HETATM   15  O   LIG     1     -18.889 -19.999 -11.813  1.00  0.00    -0.274 OA
HETATM   16  C   LIG     1     -19.470 -22.319 -11.828  1.00  0.00     0.117 C 
HETATM   17  H   LIG     1     -19.299 -22.019  -9.361  1.00  0.00     0.162 HD
ENDBRANCH  11  13
ENDBRANCH   9  11
ENDBRANCH   8   9
ENDBRANCH   7   8
ENDBRANCH   6   7
ENDBRANCH   1   6
BRANCH   1  18
HETATM   18  C   LIG     1     -21.654 -15.114 -11.094  1.00  0.00     0.179 C 
BRANCH  18  19
HETATM   19  O   LIG     1     -22.603 -15.886 -11.799  1.00  0.00    -0.365 OA
BRANCH  19  20
HETATM   20  C   LIG     1     -22.386 -15.842 -13.206  1.00  0.00     0.142 C 
BRANCH  20  21
HETATM   21  C   LIG     1     -23.021 -14.536 -13.734  1.00  0.00    -0.015 A 
HETATM   22  C   LIG     1     -23.051 -13.399 -12.927  1.00  0.00     0.011 A 
HETATM   23  C   LIG     1     -23.624 -12.220 -13.404  1.00  0.00     0.001 A 
HETATM   24  C   LIG     1     -24.167 -12.178 -14.687  1.00  0.00     0.000 A 
HETATM   25  C   LIG     1     -24.137 -13.316 -15.495  1.00  0.00     0.001 A 
HETATM   26  C   LIG     1     -23.564 -14.494 -15.018  1.00  0.00     0.011 A 
ENDBRANCH  20  21
BRANCH  20  27
HETATM   27  C   LIG     1     -20.852 -15.895 -13.377  1.00  0.00    -0.015 A 
HETATM   28  C   LIG     1     -20.184 -14.846 -14.010  1.00  0.00     0.011 A 
HETATM   29  C   LIG     1     -18.799 -14.895 -14.164  1.00  0.00     0.001 A 
HETATM   30  C   LIG     1     -18.081 -15.990 -13.685  1.00  0.00     0.000 A 
HETATM   31  C   LIG     1     -18.749 -17.038 -13.052  1.00  0.00     0.001 A 
HETATM   32  C   LIG     1     -20.134 -16.991 -12.897  1.00  0.00     0.011 A 
ENDBRANCH  20  27
BRANCH  20  33
HETATM   33  C   LIG     1     -23.078 -17.109 -13.756  1.00  0.00    -0.015 A 
HETATM   34  C   LIG     1     -22.462 -17.862 -14.756  1.00  0.00     0.011 A 
HETATM   35  C   LIG     1     -23.087 -19.006 -15.252  1.00  0.00     0.001 A 
HETATM   36  C   LIG     1     -24.327 -19.398 -14.748  1.00  0.00     0.000 A 
HETATM   37  C   LIG     1     -24.943 -18.645 -13.748  1.00  0.00     0.001 A 
HETATM   38  C   LIG     1     -24.318 -17.501 -13.252  1.00  0.00     0.011 A 
ENDBRANCH  20  33
ENDBRANCH  19  20
ENDBRANCH  18  19
ENDBRANCH   1  18
BRANCH   4  39
HETATM   39  C   LIG     1     -20.891 -12.289  -7.500  1.00  0.00     0.107 A 
HETATM   40  N   LIG     1     -21.873 -11.798  -6.686  1.00  0.00    -0.353 N 
HETATM   41  C   LIG     1     -21.262 -11.219  -5.610  1.00  0.00     0.109 A 
HETATM   42  H   LIG     1     -22.871 -11.852  -6.848  1.00  0.00     0.166 HD
HETATM   43  C   LIG     1     -19.917 -11.393  -5.834  1.00  0.00     0.135 A 
HETATM   44  N   LIG     1     -19.692 -12.059  -7.012  1.00  0.00    -0.246 NA
ENDBRANCH   4  39
TORSDOF 13
ENDMDL
MODEL 3
REMARK VINA RESULT:     -10.1      3.376      7.144
REMARK  13 active torsions:
REMARK  status: ('A' for Active; 'I' for Inactive)
REMARK    1  A    between atoms: O_1  and  C_12 
REMARK    2  A    between atoms: O_1  and  C_17 
REMARK    3  A    between atoms: N_5  and  C_18 
REMARK       I    between atoms: N_5  and  C_32 
REMARK    4  A    between atoms: C_6  and  C_11 
REMARK    5  A    between atoms: C_6  and  C_12 
REMARK    6  A    between atoms: C_9  and  C_14 
REMARK    7  A    between atoms: C_11  and  C_13 
REMARK    8  A    between atoms: C_13  and  C_15 
REMARK    9  A    between atoms: C_15  and  C_16 
REMARK   10  A    between atoms: C_16  and  C_18 
REMARK   11  A    between atoms: C_17  and  C_21 
REMARK   12  A    between atoms: C_17  and  C_22 
REMARK   13  A    between atoms: C_17  and  C_23 
ROOT
HETATM    1  C   LIG     1     -22.764 -15.763 -13.626  1.00  0.00    -0.018 C 
HETATM    2  C   LIG     1     -23.780 -15.079 -14.554  1.00  0.00     0.024 C 
HETATM    3  C   LIG     1     -21.427 -15.324 -14.240  1.00  0.00     0.012 C 
HETATM    4  C   LIG     1     -23.148 -13.720 -14.914  1.00  0.00     0.056 C 
HETATM    5  C   LIG     1     -21.640 -13.865 -14.643  1.00  0.00     0.013 C 
ENDROOT
BRANCH   1   6
HETATM    6  C   LIG     1     -22.916 -17.286 -13.650  1.00  0.00     0.012 C 
BRANCH   6   7
HETATM    7  C   LIG     1     -22.247 -17.897 -14.883  1.00  0.00     0.001 C 
BRANCH   7   8
HETATM    8  C   LIG     1     -23.180 -18.890 -15.584  1.00  0.00     0.006 C 
BRANCH   8   9
HETATM    9  C   LIG     1     -23.552 -20.113 -14.712  1.00  0.00     0.004 C 
HETATM   10  C   LIG     1     -25.063 -20.378 -14.728  1.00  0.00     0.012 C 
BRANCH   9  11
HETATM   11  C   LIG     1     -22.714 -21.350 -15.134  1.00  0.00     0.084 C 
HETATM   12  C   LIG     1     -21.309 -21.355 -14.537  1.00  0.00     0.032 C 
BRANCH  11  13
HETATM   13  N   LIG     1     -23.377 -22.598 -14.838  1.00  0.00    -0.357 N 
HETATM   14  C   LIG     1     -24.104 -23.311 -15.776  1.00  0.00     0.213 C 
HETATM   15  O   LIG     1     -24.279 -22.990 -16.949  1.00  0.00    -0.274 OA
HETATM   16  C   LIG     1     -24.669 -24.587 -15.211  1.00  0.00     0.117 C 
HETATM   17  H   LIG     1     -23.242 -23.006 -13.918  1.00  0.00     0.162 HD
ENDBRANCH  11  13
ENDBRANCH   9  11
ENDBRANCH   8   9
ENDBRANCH   7   8
ENDBRANCH   6   7
ENDBRANCH   1   6
BRANCH   1  18
HETATM   18  C   LIG     1     -22.907 -15.265 -12.179  1.00  0.00     0.179 C 
BRANCH  18  19
HETATM   19  O   LIG     1     -22.557 -16.325 -11.313  1.00  0.00    -0.365 OA
BRANCH  19  20
HETATM   20  C   LIG     1     -21.796 -15.870 -10.198  1.00  0.00     0.142 C 
BRANCH  20  21
HETATM   21  C   LIG     1     -20.424 -16.578 -10.250  1.00  0.00    -0.015 A 
HETATM   22  C   LIG     1     -19.938 -17.067 -11.463  1.00  0.00     0.011 A 
HETATM   23  C   LIG     1     -18.698 -17.706 -11.511  1.00  0.00     0.001 A 
HETATM   24  C   LIG     1     -17.947 -17.856 -10.346  1.00  0.00     0.000 A 
HETATM   25  C   LIG     1     -18.433 -17.368  -9.133  1.00  0.00     0.001 A 
HETATM   26  C   LIG     1     -19.672 -16.730  -9.086  1.00  0.00     0.011 A 
ENDBRANCH  20  21
BRANCH  20  27
HETATM   27  C   LIG     1     -21.707 -14.338 -10.370  1.00  0.00    -0.015 A 
HETATM   28  C   LIG     1     -20.640 -13.777 -11.072  1.00  0.00     0.011 A 
HETATM   29  C   LIG     1     -20.559 -12.393 -11.227  1.00  0.00     0.001 A 
HETATM   30  C   LIG     1     -21.545 -11.571 -10.683  1.00  0.00     0.000 A 
HETATM   31  C   LIG     1     -22.613 -12.133  -9.982  1.00  0.00     0.001 A 
HETATM   32  C   LIG     1     -22.694 -13.516  -9.826  1.00  0.00     0.011 A 
ENDBRANCH  20  27
BRANCH  20  33
HETATM   33  C   LIG     1     -22.629 -16.269  -8.959  1.00  0.00    -0.015 A 
HETATM   34  C   LIG     1     -23.947 -16.697  -9.112  1.00  0.00     0.011 A 
HETATM   35  C   LIG     1     -24.698 -17.058  -7.994  1.00  0.00     0.001 A 
HETATM   36  C   LIG     1     -24.131 -16.991  -6.721  1.00  0.00     0.000 A 
HETATM   37  C   LIG     1     -22.812 -16.563  -6.568  1.00  0.00     0.001 A 
HETATM   38  C   LIG     1     -22.061 -16.202  -7.686  1.00  0.00     0.011 A 
ENDBRANCH  20  33
ENDBRANCH  19  20
ENDBRANCH  18  19
ENDBRANCH   1  18
BRANCH   4  39
HETATM   39  C   LIG     1     -23.473 -13.279 -16.327  1.00  0.00     0.107 A 
HETATM   40  N   LIG     1     -23.682 -11.963 -16.632  1.00  0.00    -0.353 N 
HETATM   41  C   LIG     1     -23.951 -11.889 -17.969  1.00  0.00     0.109 A 
HETATM   42  H   LIG     1     -23.645 -11.183 -15.987  1.00  0.00     0.166 HD
HETATM   43  C   LIG     1     -23.890 -13.188 -18.412  1.00  0.00     0.135 A 
HETATM   44  N   LIG     1     -23.593 -14.049 -17.385  1.00  0.00    -0.246 NA
ENDBRANCH   4  39
TORSDOF 13
ENDMDL
MODEL 4
REMARK VINA RESULT:     -10.1      3.383      7.177
REMARK  13 active torsions:
REMARK  status: ('A' for Active; 'I' for Inactive)
REMARK    1  A    between atoms: O_1  and  C_12 
REMARK    2  A    between atoms: O_1  and  C_17 
REMARK    3  A    between atoms: N_5  and  C_18 
REMARK       I    between atoms: N_5  and  C_32 
REMARK    4  A    between atoms: C_6  and  C_11 
REMARK    5  A    between atoms: C_6  and  C_12 
REMARK    6  A    between atoms: C_9  and  C_14 
REMARK    7  A    between atoms: C_11  and  C_13 
REMARK    8  A    between atoms: C_13  and  C_15 
REMARK    9  A    between atoms: C_15  and  C_16 
REMARK   10  A    between atoms: C_16  and  C_18 
REMARK   11  A    between atoms: C_17  and  C_21 
REMARK   12  A    between atoms: C_17  and  C_22 
REMARK   13  A    between atoms: C_17  and  C_23 
ROOT
HETATM    1  C   LIG     1     -22.769 -15.820 -13.628  1.00  0.00    -0.018 C 
HETATM    2  C   LIG     1     -23.786 -15.161 -14.572  1.00  0.00     0.024 C 
HETATM    3  C   LIG     1     -21.434 -15.339 -14.214  1.00  0.00     0.012 C 
HETATM    4  C   LIG     1     -23.188 -13.783 -14.914  1.00  0.00     0.056 C 
HETATM    5  C   LIG     1     -21.681 -13.885 -14.615  1.00  0.00     0.013 C 
ENDROOT
BRANCH   1   6
HETATM    6  C   LIG     1     -22.876 -17.346 -13.661  1.00  0.00     0.012 C 
BRANCH   6   7
HETATM    7  C   LIG     1     -22.271 -17.923 -14.942  1.00  0.00     0.001 C 
BRANCH   7   8
HETATM    8  C   LIG     1     -23.226 -18.922 -15.604  1.00  0.00     0.006 C 
BRANCH   8   9
HETATM    9  C   LIG     1     -23.572 -20.136 -14.709  1.00  0.00     0.004 C 
HETATM   10  C   LIG     1     -25.081 -20.414 -14.696  1.00  0.00     0.012 C 
BRANCH   9  11
HETATM   11  C   LIG     1     -22.729 -21.371 -15.126  1.00  0.00     0.084 C 
HETATM   12  C   LIG     1     -21.333 -21.381 -14.509  1.00  0.00     0.032 C 
BRANCH  11  13
HETATM   13  N   LIG     1     -23.398 -22.620 -14.845  1.00  0.00    -0.357 N 
HETATM   14  C   LIG     1     -24.107 -23.331 -15.799  1.00  0.00     0.213 C 
HETATM   15  O   LIG     1     -24.260 -23.007 -16.974  1.00  0.00    -0.274 OA
HETATM   16  C   LIG     1     -24.682 -24.608 -15.247  1.00  0.00     0.117 C 
HETATM   17  H   LIG     1     -23.280 -23.031 -13.924  1.00  0.00     0.162 HD
ENDBRANCH  11  13
ENDBRANCH   9  11
ENDBRANCH   8   9
ENDBRANCH   7   8
ENDBRANCH   6   7
ENDBRANCH   1   6
BRANCH   1  18
HETATM   18  C   LIG     1     -22.955 -15.334 -12.182  1.00  0.00     0.179 C 
BRANCH  18  19
HETATM   19  O   LIG     1     -22.526 -16.362 -11.314  1.00  0.00    -0.365 OA
BRANCH  19  20
HETATM   20  C   LIG     1     -21.792 -15.850 -10.205  1.00  0.00     0.142 C 
BRANCH  20  21
HETATM   21  C   LIG     1     -21.672 -14.321 -10.392  1.00  0.00    -0.015 A 
HETATM   22  C   LIG     1     -20.606 -13.789 -11.118  1.00  0.00     0.011 A 
HETATM   23  C   LIG     1     -20.498 -12.409 -11.288  1.00  0.00     0.001 A 
HETATM   24  C   LIG     1     -21.455 -11.561 -10.732  1.00  0.00     0.000 A 
HETATM   25  C   LIG     1     -22.521 -12.093 -10.005  1.00  0.00     0.001 A 
HETATM   26  C   LIG     1     -22.628 -13.473  -9.836  1.00  0.00     0.011 A 
ENDBRANCH  20  21
BRANCH  20  27
HETATM   27  C   LIG     1     -22.610 -16.257  -8.960  1.00  0.00    -0.015 A 
HETATM   28  C   LIG     1     -22.032 -16.186  -7.692  1.00  0.00     0.011 A 
HETATM   29  C   LIG     1     -22.772 -16.553  -6.568  1.00  0.00     0.001 A 
HETATM   30  C   LIG     1     -24.089 -16.989  -6.710  1.00  0.00     0.000 A 
HETATM   31  C   LIG     1     -24.666 -17.059  -7.978  1.00  0.00     0.001 A 
HETATM   32  C   LIG     1     -23.928 -16.693  -9.103  1.00  0.00     0.011 A 
ENDBRANCH  20  27
BRANCH  20  33
HETATM   33  C   LIG     1     -20.426 -16.570 -10.265  1.00  0.00    -0.015 A 
HETATM   34  C   LIG     1     -19.961 -17.085 -11.475  1.00  0.00     0.011 A 
HETATM   35  C   LIG     1     -18.728 -17.733 -11.529  1.00  0.00     0.001 A 
HETATM   36  C   LIG     1     -17.959 -17.868 -10.373  1.00  0.00     0.000 A 
HETATM   37  C   LIG     1     -18.424 -17.353  -9.162  1.00  0.00     0.001 A 
HETATM   38  C   LIG     1     -19.657 -16.704  -9.108  1.00  0.00     0.011 A 
ENDBRANCH  20  33
ENDBRANCH  19  20
ENDBRANCH  18  19
ENDBRANCH   1  18
BRANCH   4  39
HETATM   39  C   LIG     1     -23.499 -13.345 -16.332  1.00  0.00     0.107 A 
HETATM   40  N   LIG     1     -23.716 -12.030 -16.639  1.00  0.00    -0.353 N 
HETATM   41  C   LIG     1     -23.968 -11.959 -17.980  1.00  0.00     0.109 A 
HETATM   42  H   LIG     1     -23.694 -11.251 -15.994  1.00  0.00     0.166 HD
HETATM   43  C   LIG     1     -23.890 -13.258 -18.422  1.00  0.00     0.135 A 
HETATM   44  N   LIG     1     -23.599 -14.116 -17.391  1.00  0.00    -0.246 NA
ENDBRANCH   4  39
TORSDOF 13
ENDMDL
MODEL 5
REMARK VINA RESULT:     -10.1      0.081      3.500
REMARK  13 active torsions:
REMARK  status: ('A' for Active; 'I' for Inactive)
REMARK    1  A    between atoms: O_1  and  C_12 
REMARK    2  A    between atoms: O_1  and  C_17 
REMARK    3  A    between atoms: N_5  and  C_18 
REMARK       I    between atoms: N_5  and  C_32 
REMARK    4  A    between atoms: C_6  and  C_11 
REMARK    5  A    between atoms: C_6  and  C_12 
REMARK    6  A    between atoms: C_9  and  C_14 
REMARK    7  A    between atoms: C_11  and  C_13 
REMARK    8  A    between atoms: C_13  and  C_15 
REMARK    9  A    between atoms: C_15  and  C_16 
REMARK   10  A    between atoms: C_16  and  C_18 
REMARK   11  A    between atoms: C_17  and  C_21 
REMARK   12  A    between atoms: C_17  and  C_22 
REMARK   13  A    between atoms: C_17  and  C_23 
ROOT
HETATM    1  C   LIG     1     -22.021 -15.207  -9.622  1.00  0.00    -0.018 C 
HETATM    2  C   LIG     1     -20.927 -14.528  -8.783  1.00  0.00     0.024 C 
HETATM    3  C   LIG     1     -23.260 -14.377  -9.259  1.00  0.00     0.012 C 
HETATM    4  C   LIG     1     -21.270 -13.026  -8.809  1.00  0.00     0.056 C 
HETATM    5  C   LIG     1     -22.760 -12.935  -9.184  1.00  0.00     0.013 C 
ENDROOT
BRANCH   1   6
HETATM    6  C   LIG     1     -22.199 -16.676  -9.233  1.00  0.00     0.012 C 
BRANCH   6   7
HETATM    7  C   LIG     1     -21.274 -17.066  -8.079  1.00  0.00     0.001 C 
BRANCH   7   8
HETATM    8  C   LIG     1     -20.802 -18.518  -8.214  1.00  0.00     0.006 C 
BRANCH   8   9
HETATM    9  C   LIG     1     -19.646 -18.703  -9.227  1.00  0.00     0.004 C 
HETATM   10  C   LIG     1     -18.773 -17.445  -9.321  1.00  0.00     0.012 C 
BRANCH   9  11
HETATM   11  C   LIG     1     -18.835 -19.983  -8.892  1.00  0.00     0.084 C 
HETATM   12  C   LIG     1     -18.980 -20.420  -7.436  1.00  0.00     0.032 C 
BRANCH  11  13
HETATM   13  N   LIG     1     -19.149 -21.086  -9.769  1.00  0.00    -0.357 N 
HETATM   14  C   LIG     1     -19.147 -20.980 -11.150  1.00  0.00     0.213 C 
HETATM   15  O   LIG     1     -18.886 -19.968 -11.795  1.00  0.00    -0.274 OA
HETATM   16  C   LIG     1     -19.485 -22.284 -11.822  1.00  0.00     0.117 C 
HETATM   17  H   LIG     1     -19.308 -21.999  -9.353  1.00  0.00     0.162 HD
ENDBRANCH  11  13
ENDBRANCH   9  11
ENDBRANCH   8   9
ENDBRANCH   7   8
ENDBRANCH   6   7
ENDBRANCH   1   6
BRANCH   1  18
HETATM   18  C   LIG     1     -21.707 -15.118 -11.124  1.00  0.00     0.179 C 
BRANCH  18  19
HETATM   19  O   LIG     1     -22.696 -15.843 -11.824  1.00  0.00    -0.365 OA
BRANCH  19  20
HETATM   20  C   LIG     1     -22.444 -15.870 -13.226  1.00  0.00     0.142 C 
BRANCH  20  21
HETATM   21  C   LIG     1     -23.099 -17.150 -13.792  1.00  0.00    -0.015 A 
HETATM   22  C   LIG     1     -22.437 -17.901 -14.763  1.00  0.00     0.011 A 
HETATM   23  C   LIG     1     -23.028 -19.057 -15.274  1.00  0.00     0.001 A 
HETATM   24  C   LIG     1     -24.281 -19.461 -14.814  1.00  0.00     0.000 A 
HETATM   25  C   LIG     1     -24.944 -18.709 -13.843  1.00  0.00     0.001 A 
HETATM   26  C   LIG     1     -24.352 -17.554 -13.333  1.00  0.00     0.011 A 
ENDBRANCH  20  21
BRANCH  20  27
HETATM   27  C   LIG     1     -23.066 -14.566 -13.770  1.00  0.00    -0.015 A 
HETATM   28  C   LIG     1     -23.068 -13.413 -12.985  1.00  0.00     0.011 A 
HETATM   29  C   LIG     1     -23.630 -12.235 -13.478  1.00  0.00     0.001 A 
HETATM   30  C   LIG     1     -24.188 -12.210 -14.755  1.00  0.00     0.000 A 
HETATM   31  C   LIG     1     -24.186 -13.363 -15.541  1.00  0.00     0.001 A 
HETATM   32  C   LIG     1     -23.625 -14.541 -15.049  1.00  0.00     0.011 A 
ENDBRANCH  20  27
BRANCH  20  33
HETATM   33  C   LIG     1     -20.904 -15.879 -13.353  1.00  0.00    -0.015 A 
HETATM   34  C   LIG     1     -20.164 -16.921 -12.795  1.00  0.00     0.011 A 
HETATM   35  C   LIG     1     -18.775 -16.930 -12.911  1.00  0.00     0.001 A 
HETATM   36  C   LIG     1     -18.124 -15.896 -13.585  1.00  0.00     0.000 A 
HETATM   37  C   LIG     1     -18.865 -14.854 -14.144  1.00  0.00     0.001 A 
HETATM   38  C   LIG     1     -20.254 -14.845 -14.028  1.00  0.00     0.011 A 
ENDBRANCH  20  33
ENDBRANCH  19  20
ENDBRANCH  18  19
ENDBRANCH   1  18
BRANCH   4  39
HETATM   39  C   LIG     1     -20.925 -12.323  -7.511  1.00  0.00     0.107 A 
HETATM   40  N   LIG     1     -21.896 -11.797  -6.706  1.00  0.00    -0.353 N 
HETATM   41  C   LIG     1     -21.275 -11.237  -5.626  1.00  0.00     0.109 A 
HETATM   42  H   LIG     1     -22.893 -11.817  -6.877  1.00  0.00     0.166 HD
HETATM   43  C   LIG     1     -19.935 -11.458  -5.838  1.00  0.00     0.135 A 
HETATM   44  N   LIG     1     -19.723 -12.133  -7.013  1.00  0.00    -0.246 NA
ENDBRANCH   4  39
TORSDOF 13
ENDMDL
MODEL 6
REMARK VINA RESULT:     -10.0      3.375      7.074
REMARK  13 active torsions:
REMARK  status: ('A' for Active; 'I' for Inactive)
REMARK    1  A    between atoms: O_1  and  C_12 
REMARK    2  A    between atoms: O_1  and  C_17 
REMARK    3  A    between atoms: N_5  and  C_18 
REMARK       I    between atoms: N_5  and  C_32 
REMARK    4  A    between atoms: C_6  and  C_11 
REMARK    5  A    between atoms: C_6  and  C_12 
REMARK    6  A    between atoms: C_9  and  C_14 
REMARK    7  A    between atoms: C_11  and  C_13 
REMARK    8  A    between atoms: C_13  and  C_15 
REMARK    9  A    between atoms: C_15  and  C_16 
REMARK   10  A    between atoms: C_16  and  C_18 
REMARK   11  A    between atoms: C_17  and  C_21 
REMARK   12  A    between atoms: C_17  and  C_22 
REMARK   13  A    between atoms: C_17  and  C_23 
ROOT
HETATM    1  C   LIG     1     -22.775 -15.780 -13.605  1.00  0.00    -0.018 C 
HETATM    2  C   LIG     1     -23.786 -15.065 -14.515  1.00  0.00     0.024 C 
HETATM    3  C   LIG     1     -21.437 -15.383 -14.243  1.00  0.00     0.012 C 
HETATM    4  C   LIG     1     -23.119 -13.726 -14.888  1.00  0.00     0.056 C 
HETATM    5  C   LIG     1     -21.611 -13.918 -14.644  1.00  0.00     0.013 C 
ENDROOT
BRANCH   1   6
HETATM    6  C   LIG     1     -22.975 -17.297 -13.624  1.00  0.00     0.012 C 
BRANCH   6   7
HETATM    7  C   LIG     1     -22.262 -17.941 -14.815  1.00  0.00     0.001 C 
BRANCH   7   8
HETATM    8  C   LIG     1     -23.185 -18.918 -15.550  1.00  0.00     0.006 C 
BRANCH   8   9
HETATM    9  C   LIG     1     -23.575 -20.157 -14.708  1.00  0.00     0.004 C 
HETATM   10  C   LIG     1     -25.084 -20.424 -14.764  1.00  0.00     0.012 C 
BRANCH   9  11
HETATM   11  C   LIG     1     -22.724 -21.385 -15.130  1.00  0.00     0.084 C 
HETATM   12  C   LIG     1     -21.320 -21.377 -14.530  1.00  0.00     0.032 C 
BRANCH  11  13
HETATM   13  N   LIG     1     -23.375 -22.640 -14.836  1.00  0.00    -0.357 N 
HETATM   14  C   LIG     1     -24.099 -23.356 -15.775  1.00  0.00     0.213 C 
HETATM   15  O   LIG     1     -24.280 -23.032 -16.946  1.00  0.00    -0.274 OA
HETATM   16  C   LIG     1     -24.651 -24.638 -15.212  1.00  0.00     0.117 C 
HETATM   17  H   LIG     1     -23.234 -23.050 -13.918  1.00  0.00     0.162 HD
ENDBRANCH  11  13
ENDBRANCH   9  11
ENDBRANCH   8   9
ENDBRANCH   7   8
ENDBRANCH   6   7
ENDBRANCH   1   6
BRANCH   1  18
HETATM   18  C   LIG     1     -22.877 -15.277 -12.156  1.00  0.00     0.179 C 
BRANCH  18  19
HETATM   19  O   LIG     1     -22.542 -16.346 -11.295  1.00  0.00    -0.365 OA
BRANCH  19  20
HETATM   20  C   LIG     1     -21.836 -15.899 -10.142  1.00  0.00     0.142 C 
BRANCH  20  21
HETATM   21  C   LIG     1     -22.665 -16.305  -8.903  1.00  0.00    -0.015 A 
HETATM   22  C   LIG     1     -24.016 -16.621  -9.040  1.00  0.00     0.011 A 
HETATM   23  C   LIG     1     -24.764 -16.988  -7.921  1.00  0.00     0.001 A 
HETATM   24  C   LIG     1     -24.161 -17.038  -6.665  1.00  0.00     0.000 A 
HETATM   25  C   LIG     1     -22.808 -16.722  -6.527  1.00  0.00     0.001 A 
HETATM   26  C   LIG     1     -22.061 -16.355  -7.646  1.00  0.00     0.011 A 
ENDBRANCH  20  21
BRANCH  20  27
HETATM   27  C   LIG     1     -20.460 -16.595 -10.219  1.00  0.00    -0.015 A 
HETATM   28  C   LIG     1     -19.999 -17.097 -11.437  1.00  0.00     0.011 A 
HETATM   29  C   LIG     1     -18.756 -17.726 -11.505  1.00  0.00     0.001 A 
HETATM   30  C   LIG     1     -17.973 -17.852 -10.358  1.00  0.00     0.000 A 
HETATM   31  C   LIG     1     -18.434 -17.350  -9.141  1.00  0.00     0.001 A 
HETATM   32  C   LIG     1     -19.677 -16.721  -9.071  1.00  0.00     0.011 A 
ENDBRANCH  20  27
BRANCH  20  33
HETATM   33  C   LIG     1     -21.725 -14.367 -10.312  1.00  0.00    -0.015 A 
HETATM   34  C   LIG     1     -22.666 -13.529  -9.716  1.00  0.00     0.011 A 
HETATM   35  C   LIG     1     -22.565 -12.147  -9.869  1.00  0.00     0.001 A 
HETATM   36  C   LIG     1     -21.522 -11.602 -10.619  1.00  0.00     0.000 A 
HETATM   37  C   LIG     1     -20.580 -12.441 -11.215  1.00  0.00     0.001 A 
HETATM   38  C   LIG     1     -20.681 -13.823 -11.062  1.00  0.00     0.011 A 
ENDBRANCH  20  33
ENDBRANCH  19  20
ENDBRANCH  18  19
ENDBRANCH   1  18
BRANCH   4  39
HETATM   39  C   LIG     1     -23.456 -13.276 -16.296  1.00  0.00     0.107 A 
HETATM   40  N   LIG     1     -23.649 -11.956 -16.594  1.00  0.00    -0.353 N 
HETATM   41  C   LIG     1     -23.934 -11.874 -17.927  1.00  0.00     0.109 A 
HETATM   42  H   LIG     1     -23.592 -11.179 -15.947  1.00  0.00     0.166 HD
HETATM   43  C   LIG     1     -23.898 -13.173 -18.374  1.00  0.00     0.135 A 
HETATM   44  N   LIG     1     -23.601 -14.041 -17.354  1.00  0.00    -0.246 NA
ENDBRANCH   4  39
TORSDOF 13
ENDMDL
MODEL 7
REMARK VINA RESULT:      -9.6      2.307      6.132
REMARK  13 active torsions:
REMARK  status: ('A' for Active; 'I' for Inactive)
REMARK    1  A    between atoms: O_1  and  C_12 
REMARK    2  A    between atoms: O_1  and  C_17 
REMARK    3  A    between atoms: N_5  and  C_18 
REMARK       I    between atoms: N_5  and  C_32 
REMARK    4  A    between atoms: C_6  and  C_11 
REMARK    5  A    between atoms: C_6  and  C_12 
REMARK    6  A    between atoms: C_9  and  C_14 
REMARK    7  A    between atoms: C_11  and  C_13 
REMARK    8  A    between atoms: C_13  and  C_15 
REMARK    9  A    between atoms: C_15  and  C_16 
REMARK   10  A    between atoms: C_16  and  C_18 
REMARK   11  A    between atoms: C_17  and  C_21 
REMARK   12  A    between atoms: C_17  and  C_22 
REMARK   13  A    between atoms: C_17  and  C_23 
ROOT
HETATM    1  C   LIG     1     -22.413 -15.221 -10.914  1.00  0.00    -0.018 C 
HETATM    2  C   LIG     1     -23.307 -15.679  -9.751  1.00  0.00     0.024 C 
HETATM    3  C   LIG     1     -21.029 -15.707 -10.461  1.00  0.00     0.012 C 
HETATM    4  C   LIG     1     -22.728 -17.036  -9.305  1.00  0.00     0.056 C 
HETATM    5  C   LIG     1     -21.280 -17.074  -9.826  1.00  0.00     0.013 C 
ENDROOT
BRANCH   1   6
HETATM    6  C   LIG     1     -22.444 -13.701 -11.083  1.00  0.00     0.012 C 
BRANCH   6   7
HETATM    7  C   LIG     1     -22.773 -12.997  -9.765  1.00  0.00     0.001 C 
BRANCH   7   8
HETATM    8  C   LIG     1     -21.497 -12.608  -9.011  1.00  0.00     0.006 C 
BRANCH   8   9
HETATM    9  C   LIG     1     -21.541 -12.945  -7.501  1.00  0.00     0.004 C 
HETATM   10  C   LIG     1     -20.794 -14.249  -7.194  1.00  0.00     0.012 C 
BRANCH   9  11
HETATM   11  C   LIG     1     -21.032 -11.740  -6.665  1.00  0.00     0.084 C 
HETATM   12  C   LIG     1     -21.771 -11.576  -5.339  1.00  0.00     0.032 C 
BRANCH  11  13
HETATM   13  N   LIG     1     -19.608 -11.789  -6.430  1.00  0.00    -0.357 N 
HETATM   14  C   LIG     1     -18.912 -10.782  -5.785  1.00  0.00     0.213 C 
HETATM   15  O   LIG     1     -19.394  -9.743  -5.339  1.00  0.00    -0.274 OA
HETATM   16  C   LIG     1     -17.446 -11.097  -5.650  1.00  0.00     0.117 C 
HETATM   17  H   LIG     1     -19.108 -12.636  -6.687  1.00  0.00     0.162 HD
ENDBRANCH  11  13
ENDBRANCH   9  11
ENDBRANCH   8   9
ENDBRANCH   7   8
ENDBRANCH   6   7
ENDBRANCH   1   6
BRANCH   1  18
HETATM   18  C   LIG     1     -22.835 -15.883 -12.235  1.00  0.00     0.179 C 
BRANCH  18  19
HETATM   19  O   LIG     1     -22.976 -14.870 -13.209  1.00  0.00    -0.365 OA
BRANCH  19  20
HETATM   20  C   LIG     1     -22.446 -15.268 -14.470  1.00  0.00     0.142 C 
BRANCH  20  21
HETATM   21  C   LIG     1     -22.866 -16.736 -14.709  1.00  0.00    -0.015 A 
HETATM   22  C   LIG     1     -24.181 -17.036 -15.064  1.00  0.00     0.011 A 
HETATM   23  C   LIG     1     -24.561 -18.361 -15.280  1.00  0.00     0.001 A 
HETATM   24  C   LIG     1     -23.625 -19.385 -15.142  1.00  0.00     0.000 A 
HETATM   25  C   LIG     1     -22.309 -19.085 -14.786  1.00  0.00     0.001 A 
HETATM   26  C   LIG     1     -21.931 -17.761 -14.570  1.00  0.00     0.011 A 
ENDBRANCH  20  21
BRANCH  20  27
HETATM   27  C   LIG     1     -23.052 -14.279 -15.490  1.00  0.00    -0.015 A 
HETATM   28  C   LIG     1     -23.902 -13.262 -15.056  1.00  0.00     0.011 A 
HETATM   29  C   LIG     1     -24.450 -12.370 -15.977  1.00  0.00     0.001 A 
HETATM   30  C   LIG     1     -24.145 -12.493 -17.333  1.00  0.00     0.000 A 
HETATM   31  C   LIG     1     -23.294 -13.509 -17.767  1.00  0.00     0.001 A 
HETATM   32  C   LIG     1     -22.747 -14.403 -16.846  1.00  0.00     0.011 A 
ENDBRANCH  20  27
BRANCH  20  33
HETATM   33  C   LIG     1     -20.917 -15.098 -14.332  1.00  0.00    -0.015 A 
HETATM   34  C   LIG     1     -20.370 -13.829 -14.147  1.00  0.00     0.011 A 
HETATM   35  C   LIG     1     -18.990 -13.676 -14.021  1.00  0.00     0.001 A 
HETATM   36  C   LIG     1     -18.155 -14.792 -14.081  1.00  0.00     0.000 A 
HETATM   37  C   LIG     1     -18.703 -16.062 -14.266  1.00  0.00     0.001 A 
HETATM   38  C   LIG     1     -20.083 -16.215 -14.391  1.00  0.00     0.011 A 
ENDBRANCH  20  33
ENDBRANCH  19  20
ENDBRANCH  18  19
ENDBRANCH   1  18
BRANCH   4  39
HETATM   39  C   LIG     1     -22.843 -17.259  -7.810  1.00  0.00     0.107 A 
HETATM   40  N   LIG     1     -23.886 -16.744  -7.091  1.00  0.00    -0.353 N 
HETATM   41  C   LIG     1     -23.708 -17.114  -5.788  1.00  0.00     0.109 A 
HETATM   42  H   LIG     1     -24.650 -16.190  -7.455  1.00  0.00     0.166 HD
HETATM   43  C   LIG     1     -22.545 -17.847  -5.787  1.00  0.00     0.135 A 
HETATM   44  N   LIG     1     -22.011 -17.933  -7.048  1.00  0.00    -0.246 NA
ENDBRANCH   4  39
TORSDOF 13
ENDMDL
MODEL 8
REMARK VINA RESULT:      -9.6      2.309      5.272
REMARK  13 active torsions:
REMARK  status: ('A' for Active; 'I' for Inactive)
REMARK    1  A    between atoms: O_1  and  C_12 
REMARK    2  A    between atoms: O_1  and  C_17 
REMARK    3  A    between atoms: N_5  and  C_18 
REMARK       I    between atoms: N_5  and  C_32 
REMARK    4  A    between atoms: C_6  and  C_11 
REMARK    5  A    between atoms: C_6  and  C_12 
REMARK    6  A    between atoms: C_9  and  C_14 
REMARK    7  A    between atoms: C_11  and  C_13 
REMARK    8  A    between atoms: C_13  and  C_15 
REMARK    9  A    between atoms: C_15  and  C_16 
REMARK   10  A    between atoms: C_16  and  C_18 
REMARK   11  A    between atoms: C_17  and  C_21 
REMARK   12  A    between atoms: C_17  and  C_22 
REMARK   13  A    between atoms: C_17  and  C_23 
ROOT
HETATM    1  C   LIG     1     -22.438 -15.235 -10.931  1.00  0.00    -0.018 C 
HETATM    2  C   LIG     1     -23.325 -15.689  -9.761  1.00  0.00     0.024 C 
HETATM    3  C   LIG     1     -21.053 -15.726 -10.488  1.00  0.00     0.012 C 
HETATM    4  C   LIG     1     -22.749 -17.047  -9.318  1.00  0.00     0.056 C 
HETATM    5  C   LIG     1     -21.304 -17.092  -9.850  1.00  0.00     0.013 C 
ENDROOT
BRANCH   1   6
HETATM    6  C   LIG     1     -22.465 -13.715 -11.101  1.00  0.00     0.012 C 
BRANCH   6   7
HETATM    7  C   LIG     1     -22.780 -13.008  -9.782  1.00  0.00     0.001 C 
BRANCH   7   8
HETATM    8  C   LIG     1     -21.496 -12.626  -9.038  1.00  0.00     0.006 C 
BRANCH   8   9
HETATM    9  C   LIG     1     -21.531 -12.959  -7.527  1.00  0.00     0.004 C 
HETATM   10  C   LIG     1     -20.766 -14.253  -7.219  1.00  0.00     0.012 C 
BRANCH   9  11
HETATM   11  C   LIG     1     -21.036 -11.746  -6.695  1.00  0.00     0.084 C 
HETATM   12  C   LIG     1     -21.781 -11.581  -5.373  1.00  0.00     0.032 C 
BRANCH  11  13
HETATM   13  N   LIG     1     -19.612 -11.782  -6.455  1.00  0.00    -0.357 N 
HETATM   14  C   LIG     1     -18.931 -10.778  -5.788  1.00  0.00     0.213 C 
HETATM   15  O   LIG     1     -19.428  -9.755  -5.324  1.00  0.00    -0.274 OA
HETATM   16  C   LIG     1     -17.462 -11.078  -5.653  1.00  0.00     0.117 C 
HETATM   17  H   LIG     1     -19.101 -12.617  -6.726  1.00  0.00     0.162 HD
ENDBRANCH  11  13
ENDBRANCH   9  11
ENDBRANCH   8   9
ENDBRANCH   7   8
ENDBRANCH   6   7
ENDBRANCH   1   6
BRANCH   1  18
HETATM   18  C   LIG     1     -22.873 -15.897 -12.249  1.00  0.00     0.179 C 
BRANCH  18  19
HETATM   19  O   LIG     1     -23.019 -14.884 -13.222  1.00  0.00    -0.365 OA
BRANCH  19  20
HETATM   20  C   LIG     1     -22.436 -15.255 -14.467  1.00  0.00     0.142 C 
BRANCH  20  21
HETATM   21  C   LIG     1     -20.905 -15.097 -14.329  1.00  0.00    -0.015 A 
HETATM   22  C   LIG     1     -20.080 -16.221 -14.382  1.00  0.00     0.011 A 
HETATM   23  C   LIG     1     -18.698 -16.078 -14.258  1.00  0.00     0.001 A 
HETATM   24  C   LIG     1     -18.141 -14.812 -14.081  1.00  0.00     0.000 A 
HETATM   25  C   LIG     1     -18.966 -13.688 -14.027  1.00  0.00     0.001 A 
HETATM   26  C   LIG     1     -20.347 -13.831 -14.151  1.00  0.00     0.011 A 
ENDBRANCH  20  21
BRANCH  20  27
HETATM   27  C   LIG     1     -22.886 -16.713 -14.703  1.00  0.00    -0.015 A 
HETATM   28  C   LIG     1     -21.964 -17.754 -14.595  1.00  0.00     0.011 A 
HETATM   29  C   LIG     1     -22.371 -19.071 -14.809  1.00  0.00     0.001 A 
HETATM   30  C   LIG     1     -23.700 -19.348 -15.129  1.00  0.00     0.000 A 
HETATM   31  C   LIG     1     -24.622 -18.306 -15.236  1.00  0.00     0.001 A 
HETATM   32  C   LIG     1     -24.216 -16.989 -15.023  1.00  0.00     0.011 A 
ENDBRANCH  20  27
BRANCH  20  33
HETATM   33  C   LIG     1     -23.047 -14.282 -15.499  1.00  0.00    -0.015 A 
HETATM   34  C   LIG     1     -23.873 -13.241 -15.074  1.00  0.00     0.011 A 
HETATM   35  C   LIG     1     -24.424 -12.363 -16.006  1.00  0.00     0.001 A 
HETATM   36  C   LIG     1     -24.151 -12.524 -17.364  1.00  0.00     0.000 A 
HETATM   37  C   LIG     1     -23.324 -13.565 -17.790  1.00  0.00     0.001 A 
HETATM   38  C   LIG     1     -22.773 -14.444 -16.858  1.00  0.00     0.011 A 
ENDBRANCH  20  33
ENDBRANCH  19  20
ENDBRANCH  18  19
ENDBRANCH   1  18
BRANCH   4  39
HETATM   39  C   LIG     1     -22.853 -17.268  -7.822  1.00  0.00     0.107 A 
HETATM   40  N   LIG     1     -23.900 -16.768  -7.099  1.00  0.00    -0.353 N 
HETATM   41  C   LIG     1     -23.710 -17.132  -5.796  1.00  0.00     0.109 A 
HETATM   42  H   LIG     1     -24.675 -16.226  -7.460  1.00  0.00     0.166 HD
HETATM   43  C   LIG     1     -22.536 -17.846  -5.799  1.00  0.00     0.135 A 
HETATM   44  N   LIG     1     -22.006 -17.927  -7.062  1.00  0.00    -0.246 NA
ENDBRANCH   4  39
TORSDOF 13
ENDMDL
MODEL 9
REMARK VINA RESULT:      -9.6      2.301      6.270
REMARK  13 active torsions:
REMARK  status: ('A' for Active; 'I' for Inactive)
REMARK    1  A    between atoms: O_1  and  C_12 
REMARK    2  A    between atoms: O_1  and  C_17 
REMARK    3  A    between atoms: N_5  and  C_18 
REMARK       I    between atoms: N_5  and  C_32 
REMARK    4  A    between atoms: C_6  and  C_11 
REMARK    5  A    between atoms: C_6  and  C_12 
REMARK    6  A    between atoms: C_9  and  C_14 
REMARK    7  A    between atoms: C_11  and  C_13 
REMARK    8  A    between atoms: C_13  and  C_15 
REMARK    9  A    between atoms: C_15  and  C_16 
REMARK   10  A    between atoms: C_16  and  C_18 
REMARK   11  A    between atoms: C_17  and  C_21 
REMARK   12  A    between atoms: C_17  and  C_22 
REMARK   13  A    between atoms: C_17  and  C_23 
ROOT
HETATM    1  C   LIG     1     -22.417 -15.233 -10.917  1.00  0.00    -0.018 C 
HETATM    2  C   LIG     1     -23.310 -15.680  -9.749  1.00  0.00     0.024 C 
HETATM    3  C   LIG     1     -21.037 -15.735 -10.470  1.00  0.00     0.012 C 
HETATM    4  C   LIG     1     -22.745 -17.043  -9.305  1.00  0.00     0.056 C 
HETATM    5  C   LIG     1     -21.300 -17.099  -9.834  1.00  0.00     0.013 C 
ENDROOT
BRANCH   1   6
HETATM    6  C   LIG     1     -22.431 -13.713 -11.086  1.00  0.00     0.012 C 
BRANCH   6   7
HETATM    7  C   LIG     1     -22.772 -13.005  -9.773  1.00  0.00     0.001 C 
BRANCH   7   8
HETATM    8  C   LIG     1     -21.503 -12.593  -9.020  1.00  0.00     0.006 C 
BRANCH   8   9
HETATM    9  C   LIG     1     -21.531 -12.950  -7.515  1.00  0.00     0.004 C 
HETATM   10  C   LIG     1     -20.762 -14.246  -7.229  1.00  0.00     0.012 C 
BRANCH   9  11
HETATM   11  C   LIG     1     -21.034 -11.748  -6.667  1.00  0.00     0.084 C 
HETATM   12  C   LIG     1     -21.774 -11.603  -5.340  1.00  0.00     0.032 C 
BRANCH  11  13
HETATM   13  N   LIG     1     -19.609 -11.786  -6.432  1.00  0.00    -0.357 N 
HETATM   14  C   LIG     1     -18.921 -10.774  -5.784  1.00  0.00     0.213 C 
HETATM   15  O   LIG     1     -19.412  -9.741  -5.336  1.00  0.00    -0.274 OA
HETATM   16  C   LIG     1     -17.453 -11.077  -5.651  1.00  0.00     0.117 C 
HETATM   17  H   LIG     1     -19.102 -12.627  -6.691  1.00  0.00     0.162 HD
ENDBRANCH  11  13
ENDBRANCH   9  11
ENDBRANCH   8   9
ENDBRANCH   7   8
ENDBRANCH   6   7
ENDBRANCH   1   6
BRANCH   1  18
HETATM   18  C   LIG     1     -22.854 -15.891 -12.236  1.00  0.00     0.179 C 
BRANCH  18  19
HETATM   19  O   LIG     1     -23.017 -14.874 -13.201  1.00  0.00    -0.365 OA
BRANCH  19  20
HETATM   20  C   LIG     1     -22.504 -15.260 -14.472  1.00  0.00     0.142 C 
BRANCH  20  21
HETATM   21  C   LIG     1     -23.093 -14.295 -15.525  1.00  0.00    -0.015 A 
HETATM   22  C   LIG     1     -22.853 -14.512 -16.882  1.00  0.00     0.011 A 
HETATM   23  C   LIG     1     -23.385 -13.640 -17.833  1.00  0.00     0.001 A 
HETATM   24  C   LIG     1     -24.157 -12.553 -17.427  1.00  0.00     0.000 A 
HETATM   25  C   LIG     1     -24.397 -12.335 -16.069  1.00  0.00     0.001 A 
HETATM   26  C   LIG     1     -23.865 -13.206 -15.120  1.00  0.00     0.011 A 
ENDBRANCH  20  21
BRANCH  20  27
HETATM   27  C   LIG     1     -20.969 -15.160 -14.334  1.00  0.00    -0.015 A 
HETATM   28  C   LIG     1     -20.361 -13.911 -14.205  1.00  0.00     0.011 A 
HETATM   29  C   LIG     1     -18.974 -13.821 -14.080  1.00  0.00     0.001 A 
HETATM   30  C   LIG     1     -18.197 -14.978 -14.083  1.00  0.00     0.000 A 
HETATM   31  C   LIG     1     -18.806 -16.227 -14.211  1.00  0.00     0.001 A 
HETATM   32  C   LIG     1     -20.192 -16.318 -14.337  1.00  0.00     0.011 A 
ENDBRANCH  20  27
BRANCH  20  33
HETATM   33  C   LIG     1     -22.977 -16.718 -14.666  1.00  0.00    -0.015 A 
HETATM   34  C   LIG     1     -24.336 -16.997 -14.814  1.00  0.00     0.011 A 
HETATM   35  C   LIG     1     -24.763 -18.312 -14.990  1.00  0.00     0.001 A 
HETATM   36  C   LIG     1     -23.832 -19.351 -15.017  1.00  0.00     0.000 A 
HETATM   37  C   LIG     1     -22.472 -19.072 -14.870  1.00  0.00     0.001 A 
HETATM   38  C   LIG     1     -22.045 -17.756 -14.694  1.00  0.00     0.011 A 
ENDBRANCH  20  33
ENDBRANCH  19  20
ENDBRANCH  18  19
ENDBRANCH   1  18
BRANCH   4  39
HETATM   39  C   LIG     1     -22.855 -17.265  -7.809  1.00  0.00     0.107 A 
HETATM   40  N   LIG     1     -23.895 -16.750  -7.088  1.00  0.00    -0.353 N 
HETATM   41  C   LIG     1     -23.713 -17.118  -5.785  1.00  0.00     0.109 A 
HETATM   42  H   LIG     1     -24.662 -16.198  -7.450  1.00  0.00     0.166 HD
HETATM   43  C   LIG     1     -22.549 -17.849  -5.786  1.00  0.00     0.135 A 
HETATM   44  N   LIG     1     -22.019 -17.936  -7.049  1.00  0.00    -0.246 NA
ENDBRANCH   4  39
TORSDOF 13
ENDMDL
