MODEL 1
REMARK VINA RESULT:      -9.8      0.000      0.000
REMARK  1 active torsions:
REMARK  status: ('A' for Active; 'I' for Inactive)
REMARK    1  A    between atoms: C_10  and  C_15 
ROOT
HETATM    1 CL   LIG     1     -18.684 -19.791  -8.996  1.00  0.00    -0.084 Cl
HETATM    2  N   LIG     1     -20.624 -15.335 -12.403  1.00  0.00    -0.300 N 
HETATM    3  N   LIG     1     -21.510 -14.204  -9.707  1.00  0.00    -0.282 NA
HETATM    4  N   LIG     1     -21.153 -14.157 -14.233  1.00  0.00    -0.245 NA
HETATM    5  C   LIG     1     -20.248 -16.419 -11.576  1.00  0.00     0.053 A 
HETATM    6  C   LIG     1     -20.804 -14.028 -12.000  1.00  0.00     0.056 A 
HETATM    7  C   LIG     1     -20.546 -16.442 -10.198  1.00  0.00     0.022 A 
HETATM    8  C   LIG     1     -20.563 -13.577 -10.610  1.00  0.00     0.208 C 
HETATM    9  C   LIG     1     -21.489 -15.482  -9.533  1.00  0.00     0.077 C 
HETATM   10  C   LIG     1     -20.809 -15.338 -13.769  1.00  0.00     0.107 A 
HETATM   11  C   LIG     1     -21.152 -13.338 -13.139  1.00  0.00     0.145 A 
HETATM   12  C   LIG     1     -19.526 -17.479 -12.148  1.00  0.00     0.032 A 
HETATM   13  C   LIG     1     -20.037 -17.487  -9.408  1.00  0.00     0.040 A 
HETATM   14  C   LIG     1     -20.824 -16.543 -14.630  1.00  0.00     0.091 C 
HETATM   15  C   LIG     1     -19.051 -18.521 -11.351  1.00  0.00     0.026 A 
HETATM   16  C   LIG     1     -19.293 -18.518  -9.981  1.00  0.00     0.035 A 
ENDROOT
BRANCH   9  17
HETATM   17  C   LIG     1     -22.519 -16.035  -8.605  1.00  0.00     0.032 A 
HETATM   18  C   LIG     1     -22.242 -16.133  -7.249  1.00  0.00     0.129 A 
HETATM   19  F   LIG     1     -21.058 -15.739  -6.756  1.00  0.00    -0.205 F 
HETATM   20  C   LIG     1     -23.207 -16.649  -6.385  1.00  0.00     0.043 A 
HETATM   21  C   LIG     1     -24.441 -17.063  -6.884  1.00  0.00     0.003 A 
HETATM   22  C   LIG     1     -24.711 -16.960  -8.250  1.00  0.00     0.001 A 
HETATM   23  C   LIG     1     -23.745 -16.444  -9.113  1.00  0.00     0.017 A 
ENDBRANCH   9  17
TORSDOF 1
ENDMDL
