MODEL 1
REMARK VINA RESULT:      -7.5      0.000      0.000
REMARK  3 active torsions:
REMARK  status: ('A' for Active; 'I' for Inactive)
REMARK    1  A    between atoms: C_5  and  C_15 
REMARK    2  A    between atoms: C_15  and  C_16 
REMARK    3  A    between atoms: C_16  and  C_17 
ROOT
HETATM    1  O   LIG     1     -20.068 -16.097  -9.122  1.00  0.00    -0.287 OA
HETATM    2  O   LIG     1     -20.136 -16.312 -11.353  1.00  0.00    -0.238 OA
HETATM    3  N   LIG     1     -21.501 -14.688 -10.391  1.00  0.00    -0.300 N 
HETATM    4  C   LIG     1     -22.055 -14.060  -9.156  1.00  0.00     0.071 C 
HETATM    5  C   LIG     1     -20.942 -14.092  -8.077  1.00  0.00     0.047 C 
HETATM    6  C   LIG     1     -20.576 -15.559  -7.878  1.00  0.00     0.128 C 
HETATM    7  C   LIG     1     -23.295 -14.868  -8.680  1.00  0.00     0.021 C 
HETATM    8  C   LIG     1     -22.451 -12.583  -9.427  1.00  0.00     0.021 C 
HETATM    9  C   LIG     1     -21.745 -16.423  -7.396  1.00  0.00     0.030 C 
HETATM   10  C   LIG     1     -22.971 -16.313  -8.298  1.00  0.00     0.004 C 
HETATM   11  C   LIG     1     -23.256 -12.384 -10.705  1.00  0.00     0.004 C 
HETATM   12  C   LIG     1     -22.181 -14.427 -11.664  1.00  0.00     0.106 C 
HETATM   13  C   LIG     1     -22.490 -12.956 -11.886  1.00  0.00     0.024 C 
HETATM   14  C   LIG     1     -20.552 -15.727 -10.352  1.00  0.00     0.365 C 
ENDROOT
BRANCH   5  15
HETATM   15  C   LIG     1     -21.279 -13.402  -6.751  1.00  0.00     0.004 C 
BRANCH  15  16
HETATM   16  C   LIG     1     -20.457 -12.131  -6.572  1.00  0.00     0.000 C 
BRANCH  16  17
HETATM   17  C   LIG     1     -21.087 -11.218  -5.519  1.00  0.00     0.000 C 
HETATM   18  C   LIG     1     -20.228  -9.991  -5.260  1.00  0.00     0.000 C 
ENDBRANCH  16  17
ENDBRANCH  15  16
ENDBRANCH   5  15
TORSDOF 3
ENDMDL
