MODEL 1
REMARK VINA RESULT:      -9.3      0.000      0.000
REMARK  3 active torsions:
REMARK  status: ('A' for Active; 'I' for Inactive)
REMARK    1  A    between atoms: C_4  and  O_11 
REMARK    2  A    between atoms: O_11  and  C_12 
REMARK    3  A    between atoms: C_12  and  C_13 
ROOT
HETATM    1  N   LIG     1     -23.823 -24.061 -15.347  1.00  0.00    -0.244 NA
HETATM    2  C   LIG     1     -24.741 -21.842 -15.527  1.00  0.00     0.018 A 
HETATM    3  C   LIG     1     -23.676 -22.726 -15.260  1.00  0.00     0.083 A 
HETATM    4  C   LIG     1     -22.258 -20.801 -14.800  1.00  0.00     0.096 A 
HETATM    5  C   LIG     1     -22.446 -22.182 -14.899  1.00  0.00     0.043 A 
HETATM    6  C   LIG     1     -24.552 -20.452 -15.426  1.00  0.00     0.004 A 
HETATM    7  C   LIG     1     -23.312 -19.935 -15.064  1.00  0.00     0.024 A 
HETATM    8  C   LIG     1     -25.979 -22.389 -15.890  1.00  0.00     0.003 A 
HETATM    9  C   LIG     1     -26.134 -23.765 -15.980  1.00  0.00     0.021 A 
HETATM   10  C   LIG     1     -25.033 -24.550 -15.700  1.00  0.00     0.099 A 
ENDROOT
BRANCH   4  11
HETATM   11  O   LIG     1     -21.041 -20.304 -14.444  1.00  0.00    -0.326 OA
BRANCH  11  12
HETATM   12  C   LIG     1     -20.013 -21.250 -14.158  1.00  0.00     0.175 C 
BRANCH  12  13
HETATM   13  C   LIG     1     -19.589 -21.094 -12.727  1.00  0.00     0.008 A 
HETATM   14  C   LIG     1     -19.336 -22.225 -11.957  1.00  0.00    -0.002 A 
HETATM   15  C   LIG     1     -18.942 -22.080 -10.626  1.00  0.00    -0.000 A 
HETATM   16  C   LIG     1     -18.803 -20.807 -10.075  1.00  0.00    -0.000 A 
HETATM   17  C   LIG     1     -19.057 -19.678 -10.853  1.00  0.00    -0.000 A 
HETATM   18  C   LIG     1     -19.452 -19.822 -12.183  1.00  0.00    -0.002 A 
ENDBRANCH  12  13
ENDBRANCH  11  12
ENDBRANCH   4  11
TORSDOF 3
ENDMDL
