MODEL 1
REMARK VINA RESULT:      -9.8      0.000      0.000
REMARK  1 active torsions:
REMARK  status: ('A' for Active; 'I' for Inactive)
REMARK    1  A    between atoms: O_1  and  C_10 
ROOT
HETATM    1  O   LIG     1     -19.380 -22.002 -10.649  1.00  0.00    -0.293 OA
HETATM    2  C   LIG     1     -21.433 -15.137 -13.300  1.00  0.00     0.001 C 
HETATM    3  C   LIG     1     -21.656 -14.020 -12.262  1.00  0.00    -0.014 C 
HETATM    4  C   LIG     1     -20.319 -16.108 -12.893  1.00  0.00    -0.004 C 
HETATM    5  C   LIG     1     -20.703 -16.771 -11.532  1.00  0.00     0.002 C 
HETATM    6  C   LIG     1     -19.638 -17.826 -11.044  1.00  0.00    -0.016 C 
HETATM    7  C   LIG     1     -22.104 -14.674 -10.949  1.00  0.00     0.012 C 
HETATM    8  C   LIG     1     -21.080 -15.713 -10.458  1.00  0.00     0.007 C 
HETATM    9  C   LIG     1     -22.751 -13.217 -12.989  1.00  0.00     0.126 C 
HETATM   10  C   LIG     1     -21.314 -14.380 -14.619  1.00  0.00     0.008 C 
HETATM   11  C   LIG     1     -20.100 -17.186 -13.961  1.00  0.00     0.010 C 
HETATM   12  C   LIG     1     -22.285 -13.196 -14.460  1.00  0.00     0.033 C 
HETATM   13  C   LIG     1     -19.307 -18.790 -12.191  1.00  0.00    -0.068 C 
HETATM   14  C   LIG     1     -19.016 -18.168 -13.537  1.00  0.00     0.035 C 
HETATM   15  C   LIG     1     -20.417 -13.126 -12.000  1.00  0.00     0.018 C 
HETATM   16  C   LIG     1     -20.242 -18.613  -9.846  1.00  0.00     0.022 C 
HETATM   17  C   LIG     1     -18.323 -17.152 -10.588  1.00  0.00     0.020 C 
HETATM   18  C   LIG     1     -19.493 -19.895  -9.517  1.00  0.00     0.084 C 
HETATM   19  C   LIG     1     -19.243 -20.125 -12.056  1.00  0.00     0.053 C 
HETATM   20  C   LIG     1     -19.400 -20.775 -10.734  1.00  0.00     0.149 C 
ENDROOT
BRANCH   9  21
HETATM   21  O   LIG     1     -22.915 -11.911 -12.473  1.00  0.00    -0.395 OA
HETATM   22  H   LIG     1     -23.729 -11.881 -11.945  1.00  0.00     0.210 HD
ENDBRANCH   9  21
TORSDOF 1
ENDMDL
