MODEL 1
REMARK VINA RESULT:     -10.0      0.000      0.000
REMARK  4 active torsions:
REMARK  status: ('A' for Active; 'I' for Inactive)
REMARK    1  A    between atoms: O_5  and  C_10 
REMARK    2  A    between atoms: O_5  and  C_15 
REMARK    3  A    between atoms: C_9  and  C_16 
REMARK    4  A    between atoms: C_15  and  C_17 
ROOT
HETATM    1  O   LIG     1     -21.054 -14.536  -9.658  1.00  0.00    -0.275 OA
HETATM    2  O   LIG     1     -22.190 -12.575  -9.960  1.00  0.00    -0.260 OA
HETATM    3  C   LIG     1     -22.217 -16.454  -8.690  1.00  0.00     0.013 A 
HETATM    4  C   LIG     1     -21.063 -15.876  -9.220  1.00  0.00     0.093 A 
HETATM    5  C   LIG     1     -23.434 -15.637  -8.596  1.00  0.00     0.066 A 
HETATM    6  C   LIG     1     -19.813 -17.909  -8.929  1.00  0.00     0.071 A 
HETATM    7  C   LIG     1     -22.144 -17.791  -8.277  1.00  0.00     0.018 A 
HETATM    8  C   LIG     1     -19.865 -16.583  -9.345  1.00  0.00     0.075 A 
HETATM    9  C   LIG     1     -20.951 -18.513  -8.397  1.00  0.00     0.038 A 
HETATM   10  C   LIG     1     -23.396 -14.365  -9.020  1.00  0.00     0.099 A 
HETATM   11  C   LIG     1     -22.186 -13.741  -9.581  1.00  0.00     0.289 A 
ENDROOT
BRANCH   6  12
HETATM   12  O   LIG     1     -18.655 -18.615  -9.043  1.00  0.00    -0.347 OA
BRANCH  12  13
HETATM   13  C   LIG     1     -18.762 -20.037  -9.076  1.00  0.00     0.214 C 
BRANCH  13  14
HETATM   14  C   LIG     1     -19.006 -20.426 -10.501  1.00  0.00    -0.034 A 
HETATM   15  C   LIG     1     -19.172 -21.767 -10.834  1.00  0.00     0.009 A 
HETATM   16  C   LIG     1     -19.400 -22.129 -12.162  1.00  0.00     0.001 A 
HETATM   17  C   LIG     1     -19.461 -21.147 -13.151  1.00  0.00     0.000 A 
HETATM   18  C   LIG     1     -19.293 -19.804 -12.813  1.00  0.00     0.001 A 
HETATM   19  C   LIG     1     -19.066 -19.443 -11.485  1.00  0.00     0.009 A 
ENDBRANCH  13  14
ENDBRANCH  12  13
ENDBRANCH   6  12
BRANCH   5  20
HETATM   20  C   LIG     1     -24.692 -16.228  -8.031  1.00  0.00     0.418 C 
HETATM   21  F   LIG     1     -25.050 -17.336  -8.709  1.00  0.00    -0.166 F 
HETATM   22  F   LIG     1     -25.710 -15.349  -8.105  1.00  0.00    -0.166 F 
HETATM   23  F   LIG     1     -24.529 -16.567  -6.737  1.00  0.00    -0.166 F 
ENDBRANCH   5  20
TORSDOF 4
ENDMDL
