MODEL 1
REMARK VINA RESULT:      -9.7      0.000      0.000
REMARK  1 active torsions:
REMARK  status: ('A' for Active; 'I' for Inactive)
REMARK    1  A    between atoms: C_10  and  C_15 
ROOT
HETATM    1 CL   LIG     1     -18.402 -17.691 -10.194  1.00  0.00    -0.084 Cl
HETATM    2  N   LIG     1     -22.302 -13.794 -12.395  1.00  0.00    -0.300 N 
HETATM    3  N   LIG     1     -22.846 -13.288  -9.432  1.00  0.00    -0.282 NA
HETATM    4  N   LIG     1     -23.558 -12.678 -13.873  1.00  0.00    -0.245 NA
HETATM    5  C   LIG     1     -21.442 -14.773 -11.843  1.00  0.00     0.053 A 
HETATM    6  C   LIG     1     -22.766 -12.664 -11.753  1.00  0.00     0.056 A 
HETATM    7  C   LIG     1     -21.399 -15.029 -10.458  1.00  0.00     0.022 A 
HETATM    8  C   LIG     1     -22.360 -12.301 -10.376  1.00  0.00     0.208 C 
HETATM    9  C   LIG     1     -22.407 -14.500  -9.480  1.00  0.00     0.077 C 
HETATM   10  C   LIG     1     -22.783 -13.722 -13.684  1.00  0.00     0.107 A 
HETATM   11  C   LIG     1     -23.552 -12.016 -12.678  1.00  0.00     0.145 A 
HETATM   12  C   LIG     1     -20.587 -15.478 -12.707  1.00  0.00     0.032 A 
HETATM   13  C   LIG     1     -20.436 -15.925  -9.960  1.00  0.00     0.040 A 
HETATM   14  C   LIG     1     -22.634 -14.774 -14.716  1.00  0.00     0.091 C 
HETATM   15  C   LIG     1     -19.656 -16.382 -12.195  1.00  0.00     0.026 A 
HETATM   16  C   LIG     1     -19.569 -16.594 -10.824  1.00  0.00     0.035 A 
ENDROOT
BRANCH   9  17
HETATM   17  C   LIG     1     -22.987 -15.449  -8.483  1.00  0.00     0.032 A 
HETATM   18  C   LIG     1     -22.337 -15.658  -7.274  1.00  0.00     0.129 A 
HETATM   19  F   LIG     1     -21.193 -15.021  -6.986  1.00  0.00    -0.205 F 
HETATM   20  C   LIG     1     -22.882 -16.544  -6.346  1.00  0.00     0.043 A 
HETATM   21  C   LIG     1     -24.072 -17.212  -6.633  1.00  0.00     0.003 A 
HETATM   22  C   LIG     1     -24.717 -16.995  -7.851  1.00  0.00     0.001 A 
HETATM   23  C   LIG     1     -24.172 -16.110  -8.780  1.00  0.00     0.017 A 
ENDBRANCH   9  17
TORSDOF 1
ENDMDL
