MODEL 1
REMARK VINA RESULT:     -10.6      0.000      0.000
REMARK  6 active torsions:
REMARK  status: ('A' for Active; 'I' for Inactive)
REMARK    1  A    between atoms: S_2  and  N_9 
REMARK    2  A    between atoms: S_2  and  C_15 
REMARK    3  A    between atoms: O_6  and  C_19 
REMARK    4  A    between atoms: N_10  and  C_18 
REMARK       I    between atoms: N_10  and  C_21 
REMARK    5  A    between atoms: C_21  and  C_22 
REMARK    6  A    between atoms: C_23  and  C_26 
ROOT
HETATM    1  C   LIG     1     -20.350 -18.156  -8.828  1.00  0.00     0.077 A 
HETATM    2  C   LIG     1     -20.769 -17.155  -9.690  1.00  0.00     0.057 A 
HETATM    3  C   LIG     1     -21.087 -18.496  -7.705  1.00  0.00     0.028 A 
HETATM    4  C   LIG     1     -21.958 -16.476  -9.421  1.00  0.00     0.070 A 
HETATM    5  C   LIG     1     -22.711 -16.807  -8.296  1.00  0.00     0.095 A 
HETATM    6  C   LIG     1     -22.276 -17.817  -7.437  1.00  0.00     0.040 A 
ENDROOT
BRANCH   4   7
HETATM    7  N   LIG     1     -22.381 -15.467 -10.289  1.00  0.00    -0.319 N 
HETATM    8  C   LIG     1     -21.940 -14.130 -10.359  1.00  0.00     0.280 C 
HETATM    9  O   LIG     1     -21.078 -13.653  -9.624  1.00  0.00    -0.265 OA
HETATM   10  H   LIG     1     -23.102 -15.742 -10.952  1.00  0.00     0.169 HD
BRANCH   8  11
HETATM   11  C   LIG     1     -22.622 -13.300 -11.367  1.00  0.00     0.144 A 
HETATM   12  O   LIG     1     -22.562 -13.743 -12.627  1.00  0.00    -0.304 OA
HETATM   13  C   LIG     1     -23.251 -12.821 -13.349  1.00  0.00     0.088 A 
HETATM   14  C   LIG     1     -23.728 -11.823 -12.531  1.00  0.00     0.041 A 
HETATM   15  C   LIG     1     -23.303 -12.153 -11.222  1.00  0.00     0.046 A 
BRANCH  13  16
HETATM   16  C   LIG     1     -23.332 -13.079 -14.759  1.00  0.00     0.019 A 
HETATM   17  C   LIG     1     -22.203 -13.396 -15.526  1.00  0.00     0.047 A 
HETATM   18 CL   LIG     1     -20.628 -13.497 -14.821  1.00  0.00    -0.083 Cl
HETATM   19  C   LIG     1     -22.326 -13.639 -16.894  1.00  0.00     0.025 A 
HETATM   20  C   LIG     1     -23.578 -13.567 -17.506  1.00  0.00     0.002 A 
HETATM   21  C   LIG     1     -24.707 -13.253 -16.749  1.00  0.00     0.001 A 
HETATM   22  C   LIG     1     -24.585 -13.010 -15.381  1.00  0.00     0.016 A 
ENDBRANCH  13  16
ENDBRANCH   8  11
ENDBRANCH   4   7
BRANCH   5  23
HETATM   23  O   LIG     1     -23.875 -16.156  -8.015  1.00  0.00    -0.354 OA
HETATM   24  C   LIG     1     -24.732 -16.750  -7.042  1.00  0.00     0.210 C 
ENDBRANCH   5  23
BRANCH   1  25
HETATM   25  S   LIG     1     -18.846 -19.015  -9.167  1.00  0.00     0.243 S 
HETATM   26  O   LIG     1     -17.847 -18.031  -9.530  1.00  0.00    -0.206 OA
HETATM   27  O   LIG     1     -18.614 -19.950  -8.087  1.00  0.00    -0.206 OA
BRANCH  25  28
HETATM   28  N   LIG     1     -19.308 -19.886 -10.567  1.00  0.00    -0.202 NA
HETATM   29  C   LIG     1     -18.928 -19.260 -11.867  1.00  0.00     0.134 C 
HETATM   30  C   LIG     1     -19.621 -20.015 -12.994  1.00  0.00     0.183 C 
HETATM   31  O   LIG     1     -19.258 -21.397 -12.962  1.00  0.00    -0.389 OA
HETATM   32  C   LIG     1     -19.669 -22.008 -11.738  1.00  0.00     0.183 C 
HETATM   33  C   LIG     1     -18.978 -21.342 -10.556  1.00  0.00     0.134 C 
ENDBRANCH  25  28
ENDBRANCH   1  25
TORSDOF 6
ENDMDL
MODEL 2
REMARK VINA RESULT:     -10.1      4.332      7.839
REMARK  6 active torsions:
REMARK  status: ('A' for Active; 'I' for Inactive)
REMARK    1  A    between atoms: S_2  and  N_9 
REMARK    2  A    between atoms: S_2  and  C_15 
REMARK    3  A    between atoms: O_6  and  C_19 
REMARK    4  A    between atoms: N_10  and  C_18 
REMARK       I    between atoms: N_10  and  C_21 
REMARK    5  A    between atoms: C_21  and  C_22 
REMARK    6  A    between atoms: C_23  and  C_26 
ROOT
HETATM    1  C   LIG     1     -22.431 -14.114 -11.698  1.00  0.00     0.077 A 
HETATM    2  C   LIG     1     -22.325 -15.435 -12.102  1.00  0.00     0.057 A 
HETATM    3  C   LIG     1     -22.675 -13.098 -12.610  1.00  0.00     0.028 A 
HETATM    4  C   LIG     1     -22.466 -15.750 -13.453  1.00  0.00     0.070 A 
HETATM    5  C   LIG     1     -22.712 -14.740 -14.383  1.00  0.00     0.095 A 
HETATM    6  C   LIG     1     -22.816 -13.414 -13.962  1.00  0.00     0.040 A 
ENDROOT
BRANCH   4   7
HETATM    7  N   LIG     1     -22.360 -17.082 -13.860  1.00  0.00    -0.319 N 
HETATM    8  C   LIG     1     -23.389 -17.968 -14.234  1.00  0.00     0.280 C 
HETATM    9  O   LIG     1     -24.581 -17.667 -14.250  1.00  0.00    -0.265 OA
HETATM   10  H   LIG     1     -21.412 -17.451 -13.887  1.00  0.00     0.169 HD
BRANCH   8  11
HETATM   11  C   LIG     1     -22.947 -19.331 -14.575  1.00  0.00     0.144 A 
HETATM   12  O   LIG     1     -23.902 -20.172 -14.984  1.00  0.00    -0.304 OA
HETATM   13  C   LIG     1     -23.252 -21.338 -15.232  1.00  0.00     0.088 A 
HETATM   14  C   LIG     1     -21.907 -21.207 -14.975  1.00  0.00     0.041 A 
HETATM   15  C   LIG     1     -21.719 -19.873 -14.541  1.00  0.00     0.046 A 
BRANCH  13  16
HETATM   16  C   LIG     1     -24.079 -22.418 -15.694  1.00  0.00     0.019 A 
HETATM   17  C   LIG     1     -25.053 -22.241 -16.686  1.00  0.00     0.047 A 
HETATM   18 CL   LIG     1     -25.326 -20.701 -17.423  1.00  0.00    -0.083 Cl
HETATM   19  C   LIG     1     -25.835 -23.317 -17.105  1.00  0.00     0.025 A 
HETATM   20  C   LIG     1     -25.650 -24.577 -16.536  1.00  0.00     0.002 A 
HETATM   21  C   LIG     1     -24.682 -24.762 -15.549  1.00  0.00     0.001 A 
HETATM   22  C   LIG     1     -23.899 -23.686 -15.129  1.00  0.00     0.016 A 
ENDBRANCH  13  16
ENDBRANCH   8  11
ENDBRANCH   4   7
BRANCH   5  23
HETATM   23  O   LIG     1     -22.853 -15.027 -15.708  1.00  0.00    -0.354 OA
HETATM   24  C   LIG     1     -24.054 -14.591 -16.341  1.00  0.00     0.210 C 
ENDBRANCH   5  23
BRANCH   1  25
HETATM   25  S   LIG     1     -22.253 -13.714  -9.989  1.00  0.00     0.243 S 
HETATM   26  O   LIG     1     -20.885 -13.290  -9.774  1.00  0.00    -0.206 OA
HETATM   27  O   LIG     1     -23.364 -12.868  -9.610  1.00  0.00    -0.206 OA
BRANCH  25  28
HETATM   28  N   LIG     1     -22.473 -15.264  -9.294  1.00  0.00    -0.202 NA
HETATM   29  C   LIG     1     -21.310 -15.794  -8.524  1.00  0.00     0.134 C 
HETATM   30  C   LIG     1     -21.568 -17.258  -8.195  1.00  0.00     0.183 C 
HETATM   31  O   LIG     1     -22.782 -17.392  -7.452  1.00  0.00    -0.389 OA
HETATM   32  C   LIG     1     -23.902 -16.932  -8.210  1.00  0.00     0.183 C 
HETATM   33  C   LIG     1     -23.747 -15.455  -8.540  1.00  0.00     0.134 C 
ENDBRANCH  25  28
ENDBRANCH   1  25
TORSDOF 6
ENDMDL
MODEL 3
REMARK VINA RESULT:      -9.7      3.476      7.159
REMARK  6 active torsions:
REMARK  status: ('A' for Active; 'I' for Inactive)
REMARK    1  A    between atoms: S_2  and  N_9 
REMARK    2  A    between atoms: S_2  and  C_15 
REMARK    3  A    between atoms: O_6  and  C_19 
REMARK    4  A    between atoms: N_10  and  C_18 
REMARK       I    between atoms: N_10  and  C_21 
REMARK    5  A    between atoms: C_21  and  C_22 
REMARK    6  A    between atoms: C_23  and  C_26 
ROOT
HETATM    1  C   LIG     1     -21.156 -13.921 -10.680  1.00  0.00     0.077 A 
HETATM    2  C   LIG     1     -21.208 -15.221 -11.156  1.00  0.00     0.057 A 
HETATM    3  C   LIG     1     -20.417 -12.944 -11.328  1.00  0.00     0.028 A 
HETATM    4  C   LIG     1     -20.501 -15.553 -12.312  1.00  0.00     0.070 A 
HETATM    5  C   LIG     1     -19.753 -14.581 -12.976  1.00  0.00     0.095 A 
HETATM    6  C   LIG     1     -19.711 -13.276 -12.484  1.00  0.00     0.040 A 
ENDROOT
BRANCH   4   7
HETATM    7  N   LIG     1     -20.552 -16.863 -12.793  1.00  0.00    -0.319 N 
HETATM    8  C   LIG     1     -19.591 -17.885 -12.655  1.00  0.00     0.280 C 
HETATM    9  O   LIG     1     -18.524 -17.747 -12.062  1.00  0.00    -0.265 OA
HETATM   10  H   LIG     1     -21.396 -17.102 -13.308  1.00  0.00     0.169 HD
BRANCH   8  11
HETATM   11  C   LIG     1     -19.931 -19.155 -13.320  1.00  0.00     0.144 A 
HETATM   12  O   LIG     1     -21.185 -19.264 -13.769  1.00  0.00    -0.304 OA
HETATM   13  C   LIG     1     -21.244 -20.500 -14.328  1.00  0.00     0.088 A 
HETATM   14  C   LIG     1     -20.031 -21.140 -14.221  1.00  0.00     0.041 A 
HETATM   15  C   LIG     1     -19.171 -20.237 -13.551  1.00  0.00     0.046 A 
BRANCH  13  16
HETATM   16  C   LIG     1     -22.515 -20.859 -14.893  1.00  0.00     0.019 A 
HETATM   17  C   LIG     1     -23.432 -19.899 -15.340  1.00  0.00     0.047 A 
HETATM   18 CL   LIG     1     -23.094 -18.206 -15.239  1.00  0.00    -0.083 Cl
HETATM   19  C   LIG     1     -24.656 -20.292 -15.882  1.00  0.00     0.025 A 
HETATM   20  C   LIG     1     -24.972 -21.646 -15.982  1.00  0.00     0.002 A 
HETATM   21  C   LIG     1     -24.065 -22.609 -15.540  1.00  0.00     0.001 A 
HETATM   22  C   LIG     1     -22.841 -22.217 -14.998  1.00  0.00     0.016 A 
ENDBRANCH  13  16
ENDBRANCH   8  11
ENDBRANCH   4   7
BRANCH   5  23
HETATM   23  O   LIG     1     -19.056 -14.885 -14.107  1.00  0.00    -0.354 OA
HETATM   24  C   LIG     1     -17.633 -14.838 -14.022  1.00  0.00     0.210 C 
ENDBRANCH   5  23
BRANCH   1  25
HETATM   25  S   LIG     1     -22.050 -13.499  -9.217  1.00  0.00     0.243 S 
HETATM   26  O   LIG     1     -21.126 -12.860  -8.303  1.00  0.00    -0.206 OA
HETATM   27  O   LIG     1     -23.276 -12.843  -9.617  1.00  0.00    -0.206 OA
BRANCH  25  28
HETATM   28  N   LIG     1     -22.422 -15.065  -8.632  1.00  0.00    -0.202 NA
HETATM   29  C   LIG     1     -21.692 -15.481  -7.399  1.00  0.00     0.134 C 
HETATM   30  C   LIG     1     -21.940 -16.964  -7.161  1.00  0.00     0.183 C 
HETATM   31  O   LIG     1     -23.341 -17.219  -7.039  1.00  0.00    -0.389 OA
HETATM   32  C   LIG     1     -24.033 -16.868  -8.239  1.00  0.00     0.183 C 
HETATM   33  C   LIG     1     -23.877 -15.382  -8.526  1.00  0.00     0.134 C 
ENDBRANCH  25  28
ENDBRANCH   1  25
TORSDOF 6
ENDMDL
MODEL 4
REMARK VINA RESULT:      -9.5      4.249      7.357
REMARK  6 active torsions:
REMARK  status: ('A' for Active; 'I' for Inactive)
REMARK    1  A    between atoms: S_2  and  N_9 
REMARK    2  A    between atoms: S_2  and  C_15 
REMARK    3  A    between atoms: O_6  and  C_19 
REMARK    4  A    between atoms: N_10  and  C_18 
REMARK       I    between atoms: N_10  and  C_21 
REMARK    5  A    between atoms: C_21  and  C_22 
REMARK    6  A    between atoms: C_23  and  C_26 
ROOT
HETATM    1  C   LIG     1     -21.713 -14.025 -11.218  1.00  0.00     0.077 A 
HETATM    2  C   LIG     1     -22.403 -15.035 -11.868  1.00  0.00     0.057 A 
HETATM    3  C   LIG     1     -20.846 -13.187 -11.903  1.00  0.00     0.028 A 
HETATM    4  C   LIG     1     -22.223 -15.213 -13.240  1.00  0.00     0.070 A 
HETATM    5  C   LIG     1     -21.355 -14.377 -13.943  1.00  0.00     0.095 A 
HETATM    6  C   LIG     1     -20.666 -13.364 -13.274  1.00  0.00     0.040 A 
ENDROOT
BRANCH   4   7
HETATM    7  N   LIG     1     -22.918 -16.230 -13.896  1.00  0.00    -0.319 N 
HETATM    8  C   LIG     1     -22.432 -17.476 -14.342  1.00  0.00     0.280 C 
HETATM    9  O   LIG     1     -21.269 -17.847 -14.205  1.00  0.00    -0.265 OA
HETATM   10  H   LIG     1     -23.902 -16.038 -14.071  1.00  0.00     0.169 HD
BRANCH   8  11
HETATM   11  C   LIG     1     -23.419 -18.316 -15.042  1.00  0.00     0.144 A 
HETATM   12  O   LIG     1     -23.335 -19.630 -14.814  1.00  0.00    -0.304 OA
HETATM   13  C   LIG     1     -24.333 -20.174 -15.559  1.00  0.00     0.088 A 
HETATM   14  C   LIG     1     -25.020 -19.194 -16.237  1.00  0.00     0.041 A 
HETATM   15  C   LIG     1     -24.404 -17.969 -15.886  1.00  0.00     0.046 A 
BRANCH  13  16
HETATM   16  C   LIG     1     -24.451 -21.602 -15.480  1.00  0.00     0.019 A 
HETATM   17  C   LIG     1     -23.391 -22.418 -15.063  1.00  0.00     0.047 A 
HETATM   18 CL   LIG     1     -21.859 -21.754 -14.615  1.00  0.00    -0.083 Cl
HETATM   19  C   LIG     1     -23.548 -23.803 -15.001  1.00  0.00     0.025 A 
HETATM   20  C   LIG     1     -24.767 -24.383 -15.355  1.00  0.00     0.002 A 
HETATM   21  C   LIG     1     -25.827 -23.578 -15.770  1.00  0.00     0.001 A 
HETATM   22  C   LIG     1     -25.671 -22.193 -15.833  1.00  0.00     0.016 A 
ENDBRANCH  13  16
ENDBRANCH   8  11
ENDBRANCH   4   7
BRANCH   5  23
HETATM   23  O   LIG     1     -21.164 -14.534 -15.283  1.00  0.00    -0.354 OA
HETATM   24  C   LIG     1     -21.881 -13.655 -16.148  1.00  0.00     0.210 C 
ENDBRANCH   5  23
BRANCH   1  25
HETATM   25  S   LIG     1     -21.941 -13.800  -9.483  1.00  0.00     0.243 S 
HETATM   26  O   LIG     1     -20.728 -13.215  -8.949  1.00  0.00    -0.206 OA
HETATM   27  O   LIG     1     -23.226 -13.165  -9.280  1.00  0.00    -0.206 OA
BRANCH  25  28
HETATM   28  N   LIG     1     -22.042 -15.433  -8.980  1.00  0.00    -0.202 NA
HETATM   29  C   LIG     1     -20.737 -16.102  -8.704  1.00  0.00     0.134 C 
HETATM   30  C   LIG     1     -20.983 -17.594  -8.519  1.00  0.00     0.183 C 
HETATM   31  O   LIG     1     -21.910 -17.815  -7.454  1.00  0.00    -0.389 OA
HETATM   32  C   LIG     1     -23.175 -17.218  -7.742  1.00  0.00     0.183 C 
HETATM   33  C   LIG     1     -23.027 -15.711  -7.893  1.00  0.00     0.134 C 
ENDBRANCH  25  28
ENDBRANCH   1  25
TORSDOF 6
ENDMDL
MODEL 5
REMARK VINA RESULT:      -9.4      4.208      6.839
REMARK  6 active torsions:
REMARK  status: ('A' for Active; 'I' for Inactive)
REMARK    1  A    between atoms: S_2  and  N_9 
REMARK    2  A    between atoms: S_2  and  C_15 
REMARK    3  A    between atoms: O_6  and  C_19 
REMARK    4  A    between atoms: N_10  and  C_18 
REMARK       I    between atoms: N_10  and  C_21 
REMARK    5  A    between atoms: C_21  and  C_22 
REMARK    6  A    between atoms: C_23  and  C_26 
ROOT
HETATM    1  C   LIG     1     -21.594 -14.800 -10.549  1.00  0.00     0.077 A 
HETATM    2  C   LIG     1     -22.262 -15.746 -11.311  1.00  0.00     0.057 A 
HETATM    3  C   LIG     1     -21.031 -13.674 -11.129  1.00  0.00     0.028 A 
HETATM    4  C   LIG     1     -22.369 -15.561 -12.689  1.00  0.00     0.070 A 
HETATM    5  C   LIG     1     -21.808 -14.433 -13.287  1.00  0.00     0.095 A 
HETATM    6  C   LIG     1     -21.139 -13.489 -12.508  1.00  0.00     0.040 A 
ENDROOT
BRANCH   4   7
HETATM    7  N   LIG     1     -23.042 -16.514 -13.457  1.00  0.00    -0.319 N 
HETATM    8  C   LIG     1     -22.498 -17.574 -14.210  1.00  0.00     0.280 C 
HETATM    9  O   LIG     1     -21.295 -17.809 -14.294  1.00  0.00    -0.265 OA
HETATM   10  H   LIG     1     -24.055 -16.422 -13.470  1.00  0.00     0.169 HD
BRANCH   8  11
HETATM   11  C   LIG     1     -23.482 -18.384 -14.949  1.00  0.00     0.144 A 
HETATM   12  O   LIG     1     -23.405 -19.706 -14.770  1.00  0.00    -0.304 OA
HETATM   13  C   LIG     1     -24.398 -20.217 -15.543  1.00  0.00     0.088 A 
HETATM   14  C   LIG     1     -25.076 -19.210 -16.189  1.00  0.00     0.041 A 
HETATM   15  C   LIG     1     -24.459 -18.001 -15.787  1.00  0.00     0.046 A 
BRANCH  13  16
HETATM   16  C   LIG     1     -24.522 -21.647 -15.518  1.00  0.00     0.019 A 
HETATM   17  C   LIG     1     -23.475 -22.481 -15.103  1.00  0.00     0.047 A 
HETATM   18 CL   LIG     1     -21.953 -21.839 -14.592  1.00  0.00    -0.083 Cl
HETATM   19  C   LIG     1     -23.638 -23.866 -15.095  1.00  0.00     0.025 A 
HETATM   20  C   LIG     1     -24.848 -24.429 -15.501  1.00  0.00     0.002 A 
HETATM   21  C   LIG     1     -25.896 -23.606 -15.914  1.00  0.00     0.001 A 
HETATM   22  C   LIG     1     -25.734 -22.221 -15.923  1.00  0.00     0.016 A 
ENDBRANCH  13  16
ENDBRANCH   8  11
ENDBRANCH   4   7
BRANCH   5  23
HETATM   23  O   LIG     1     -21.902 -14.234 -14.632  1.00  0.00    -0.354 OA
HETATM   24  C   LIG     1     -22.782 -13.203 -15.075  1.00  0.00     0.210 C 
ENDBRANCH   5  23
BRANCH   1  25
HETATM   25  S   LIG     1     -21.458 -15.034  -8.805  1.00  0.00     0.243 S 
HETATM   26  O   LIG     1     -20.693 -13.927  -8.270  1.00  0.00    -0.206 OA
HETATM   27  O   LIG     1     -22.775 -15.347  -8.293  1.00  0.00    -0.206 OA
BRANCH  25  28
HETATM   28  N   LIG     1     -20.495 -16.449  -8.767  1.00  0.00    -0.202 NA
HETATM   29  C   LIG     1     -21.239 -17.726  -8.563  1.00  0.00     0.134 C 
HETATM   30  C   LIG     1     -20.234 -18.840  -8.303  1.00  0.00     0.183 C 
HETATM   31  O   LIG     1     -19.318 -18.947  -9.394  1.00  0.00    -0.389 OA
HETATM   32  C   LIG     1     -18.570 -17.741  -9.556  1.00  0.00     0.183 C 
HETATM   33  C   LIG     1     -19.500 -16.579  -9.872  1.00  0.00     0.134 C 
ENDBRANCH  25  28
ENDBRANCH   1  25
TORSDOF 6
ENDMDL
MODEL 6
REMARK VINA RESULT:      -9.2      4.805      7.911
REMARK  6 active torsions:
REMARK  status: ('A' for Active; 'I' for Inactive)
REMARK    1  A    between atoms: S_2  and  N_9 
REMARK    2  A    between atoms: S_2  and  C_15 
REMARK    3  A    between atoms: O_6  and  C_19 
REMARK    4  A    between atoms: N_10  and  C_18 
REMARK       I    between atoms: N_10  and  C_21 
REMARK    5  A    between atoms: C_21  and  C_22 
REMARK    6  A    between atoms: C_23  and  C_26 
ROOT
HETATM    1  C   LIG     1     -19.570 -15.371 -13.360  1.00  0.00     0.077 A 
HETATM    2  C   LIG     1     -20.601 -16.013 -14.026  1.00  0.00     0.057 A 
HETATM    3  C   LIG     1     -18.638 -16.080 -12.618  1.00  0.00     0.028 A 
HETATM    4  C   LIG     1     -20.705 -17.402 -13.948  1.00  0.00     0.070 A 
HETATM    5  C   LIG     1     -19.775 -18.130 -13.206  1.00  0.00     0.095 A 
HETATM    6  C   LIG     1     -18.742 -17.470 -12.540  1.00  0.00     0.040 A 
ENDROOT
BRANCH   4   7
HETATM    7  N   LIG     1     -21.744 -18.050 -14.619  1.00  0.00    -0.319 N 
HETATM    8  C   LIG     1     -23.132 -17.903 -14.433  1.00  0.00     0.280 C 
HETATM    9  O   LIG     1     -23.637 -17.143 -13.609  1.00  0.00    -0.265 OA
HETATM   10  H   LIG     1     -21.450 -18.713 -15.333  1.00  0.00     0.169 HD
BRANCH   8  11
HETATM   11  C   LIG     1     -23.971 -18.769 -15.279  1.00  0.00     0.144 A 
HETATM   12  O   LIG     1     -23.864 -20.083 -15.060  1.00  0.00    -0.304 OA
HETATM   13  C   LIG     1     -24.720 -20.652 -15.948  1.00  0.00     0.088 A 
HETATM   14  C   LIG     1     -25.346 -19.688 -16.703  1.00  0.00     0.041 A 
HETATM   15  C   LIG     1     -24.840 -18.446 -16.250  1.00  0.00     0.046 A 
BRANCH  13  16
HETATM   16  C   LIG     1     -24.786 -22.086 -15.907  1.00  0.00     0.019 A 
HETATM   17  C   LIG     1     -23.785 -22.863 -15.309  1.00  0.00     0.047 A 
HETATM   18 CL   LIG     1     -22.393 -22.142 -14.578  1.00  0.00    -0.083 Cl
HETATM   19  C   LIG     1     -23.888 -24.254 -15.292  1.00  0.00     0.025 A 
HETATM   20  C   LIG     1     -24.993 -24.878 -15.871  1.00  0.00     0.002 A 
HETATM   21  C   LIG     1     -25.994 -24.112 -16.468  1.00  0.00     0.001 A 
HETATM   22  C   LIG     1     -25.891 -22.721 -16.486  1.00  0.00     0.016 A 
ENDBRANCH  13  16
ENDBRANCH   8  11
ENDBRANCH   4   7
BRANCH   5  23
HETATM   23  O   LIG     1     -19.858 -19.488 -13.117  1.00  0.00    -0.354 OA
HETATM   24  C   LIG     1     -19.132 -20.114 -12.061  1.00  0.00     0.210 C 
ENDBRANCH   5  23
BRANCH   1  25
HETATM   25  S   LIG     1     -19.439 -13.614 -13.457  1.00  0.00     0.243 S 
HETATM   26  O   LIG     1     -18.139 -13.238 -12.942  1.00  0.00    -0.206 OA
HETATM   27  O   LIG     1     -19.862 -13.208 -14.780  1.00  0.00    -0.206 OA
BRANCH  25  28
HETATM   28  N   LIG     1     -20.641 -13.161 -12.326  1.00  0.00    -0.202 NA
HETATM   29  C   LIG     1     -22.023 -13.032 -12.874  1.00  0.00     0.134 C 
HETATM   30  C   LIG     1     -22.910 -12.388 -11.817  1.00  0.00     0.183 C 
HETATM   31  O   LIG     1     -22.902 -13.168 -10.620  1.00  0.00    -0.389 OA
HETATM   32  C   LIG     1     -21.587 -13.248 -10.067  1.00  0.00     0.183 C 
HETATM   33  C   LIG     1     -20.642 -13.930 -11.046  1.00  0.00     0.134 C 
ENDBRANCH  25  28
ENDBRANCH   1  25
TORSDOF 6
ENDMDL
MODEL 7
REMARK VINA RESULT:      -8.8      4.787      8.192
REMARK  6 active torsions:
REMARK  status: ('A' for Active; 'I' for Inactive)
REMARK    1  A    between atoms: S_2  and  N_9 
REMARK    2  A    between atoms: S_2  and  C_15 
REMARK    3  A    between atoms: O_6  and  C_19 
REMARK    4  A    between atoms: N_10  and  C_18 
REMARK       I    between atoms: N_10  and  C_21 
REMARK    5  A    between atoms: C_21  and  C_22 
REMARK    6  A    between atoms: C_23  and  C_26 
ROOT
HETATM    1  C   LIG     1     -22.343 -13.842 -12.840  1.00  0.00     0.077 A 
HETATM    2  C   LIG     1     -22.286 -15.203 -13.094  1.00  0.00     0.057 A 
HETATM    3  C   LIG     1     -22.856 -12.955 -13.773  1.00  0.00     0.028 A 
HETATM    4  C   LIG     1     -22.756 -15.691 -14.313  1.00  0.00     0.070 A 
HETATM    5  C   LIG     1     -23.276 -14.811 -15.262  1.00  0.00     0.095 A 
HETATM    6  C   LIG     1     -23.326 -13.443 -14.993  1.00  0.00     0.040 A 
ENDROOT
BRANCH   4   7
HETATM    7  N   LIG     1     -22.700 -17.062 -14.569  1.00  0.00    -0.319 N 
HETATM    8  C   LIG     1     -23.726 -18.019 -14.444  1.00  0.00     0.280 C 
HETATM    9  O   LIG     1     -24.868 -17.756 -14.072  1.00  0.00    -0.265 OA
HETATM   10  H   LIG     1     -21.796 -17.405 -14.886  1.00  0.00     0.169 HD
BRANCH   8  11
HETATM   11  C   LIG     1     -23.330 -19.404 -14.754  1.00  0.00     0.144 A 
HETATM   12  O   LIG     1     -24.298 -20.198 -15.223  1.00  0.00    -0.304 OA
HETATM   13  C   LIG     1     -23.691 -21.396 -15.427  1.00  0.00     0.088 A 
HETATM   14  C   LIG     1     -22.361 -21.330 -15.085  1.00  0.00     0.041 A 
HETATM   15  C   LIG     1     -22.136 -20.005 -14.641  1.00  0.00     0.046 A 
BRANCH  13  16
HETATM   16  C   LIG     1     -24.539 -22.435 -15.940  1.00  0.00     0.019 A 
HETATM   17  C   LIG     1     -24.521 -23.738 -15.423  1.00  0.00     0.047 A 
HETATM   18 CL   LIG     1     -23.467 -24.183 -14.126  1.00  0.00    -0.083 Cl
HETATM   19  C   LIG     1     -25.361 -24.718 -15.950  1.00  0.00     0.025 A 
HETATM   20  C   LIG     1     -26.227 -24.404 -16.998  1.00  0.00     0.002 A 
HETATM   21  C   LIG     1     -26.253 -23.110 -17.518  1.00  0.00     0.001 A 
HETATM   22  C   LIG     1     -25.412 -22.130 -16.991  1.00  0.00     0.016 A 
ENDBRANCH  13  16
ENDBRANCH   8  11
ENDBRANCH   4   7
BRANCH   5  23
HETATM   23  O   LIG     1     -23.740 -15.267 -16.460  1.00  0.00    -0.354 OA
HETATM   24  C   LIG     1     -23.585 -14.405 -17.586  1.00  0.00     0.210 C 
ENDBRANCH   5  23
BRANCH   1  25
HETATM   25  S   LIG     1     -21.748 -13.224 -11.297  1.00  0.00     0.243 S 
HETATM   26  O   LIG     1     -20.313 -13.065 -11.408  1.00  0.00    -0.206 OA
HETATM   27  O   LIG     1     -22.593 -12.116 -10.906  1.00  0.00    -0.206 OA
BRANCH  25  28
HETATM   28  N   LIG     1     -22.086 -14.565 -10.288  1.00  0.00    -0.202 NA
HETATM   29  C   LIG     1     -20.897 -15.344  -9.836  1.00  0.00     0.134 C 
HETATM   30  C   LIG     1     -21.378 -16.626  -9.170  1.00  0.00     0.183 C 
HETATM   31  O   LIG     1     -22.241 -16.322  -8.072  1.00  0.00    -0.389 OA
HETATM   32  C   LIG     1     -23.405 -15.620  -8.513  1.00  0.00     0.183 C 
HETATM   33  C   LIG     1     -23.014 -14.294  -9.150  1.00  0.00     0.134 C 
ENDBRANCH  25  28
ENDBRANCH   1  25
TORSDOF 6
ENDMDL
MODEL 8
REMARK VINA RESULT:      -8.4      3.426      7.200
REMARK  6 active torsions:
REMARK  status: ('A' for Active; 'I' for Inactive)
REMARK    1  A    between atoms: S_2  and  N_9 
REMARK    2  A    between atoms: S_2  and  C_15 
REMARK    3  A    between atoms: O_6  and  C_19 
REMARK    4  A    between atoms: N_10  and  C_18 
REMARK       I    between atoms: N_10  and  C_21 
REMARK    5  A    between atoms: C_21  and  C_22 
REMARK    6  A    between atoms: C_23  and  C_26 
ROOT
HETATM    1  C   LIG     1     -20.836 -14.165 -11.052  1.00  0.00     0.077 A 
HETATM    2  C   LIG     1     -20.840 -15.333 -11.799  1.00  0.00     0.057 A 
HETATM    3  C   LIG     1     -20.684 -14.190  -9.675  1.00  0.00     0.028 A 
HETATM    4  C   LIG     1     -20.688 -16.558 -11.150  1.00  0.00     0.070 A 
HETATM    5  C   LIG     1     -20.534 -16.600  -9.765  1.00  0.00     0.095 A 
HETATM    6  C   LIG     1     -20.532 -15.416  -9.026  1.00  0.00     0.040 A 
ENDROOT
BRANCH   4   7
HETATM    7  N   LIG     1     -20.692 -17.735 -11.902  1.00  0.00    -0.319 N 
HETATM    8  C   LIG     1     -19.764 -18.156 -12.875  1.00  0.00     0.280 C 
HETATM    9  O   LIG     1     -18.776 -17.505 -13.207  1.00  0.00    -0.265 OA
HETATM   10  H   LIG     1     -21.470 -18.364 -11.716  1.00  0.00     0.169 HD
BRANCH   8  11
HETATM   11  C   LIG     1     -20.077 -19.442 -13.521  1.00  0.00     0.144 A 
HETATM   12  O   LIG     1     -21.344 -19.607 -13.913  1.00  0.00    -0.304 OA
HETATM   13  C   LIG     1     -21.375 -20.847 -14.468  1.00  0.00     0.088 A 
HETATM   14  C   LIG     1     -20.131 -21.432 -14.415  1.00  0.00     0.041 A 
HETATM   15  C   LIG     1     -19.282 -20.491 -13.785  1.00  0.00     0.046 A 
BRANCH  13  16
HETATM   16  C   LIG     1     -22.652 -21.263 -14.974  1.00  0.00     0.019 A 
HETATM   17  C   LIG     1     -23.594 -20.350 -15.469  1.00  0.00     0.047 A 
HETATM   18 CL   LIG     1     -23.278 -18.650 -15.501  1.00  0.00    -0.083 Cl
HETATM   19  C   LIG     1     -24.824 -20.797 -15.951  1.00  0.00     0.025 A 
HETATM   20  C   LIG     1     -25.122 -22.159 -15.943  1.00  0.00     0.002 A 
HETATM   21  C   LIG     1     -24.191 -23.075 -15.453  1.00  0.00     0.001 A 
HETATM   22  C   LIG     1     -22.961 -22.629 -14.971  1.00  0.00     0.016 A 
ENDBRANCH  13  16
ENDBRANCH   8  11
ENDBRANCH   4   7
BRANCH   5  23
HETATM   23  O   LIG     1     -20.385 -17.787  -9.112  1.00  0.00    -0.354 OA
HETATM   24  C   LIG     1     -21.288 -18.056  -8.041  1.00  0.00     0.210 C 
ENDBRANCH   5  23
BRANCH   1  25
HETATM   25  S   LIG     1     -21.028 -12.614 -11.872  1.00  0.00     0.243 S 
HETATM   26  O   LIG     1     -21.937 -11.807 -11.085  1.00  0.00    -0.206 OA
HETATM   27  O   LIG     1     -19.710 -12.127 -12.220  1.00  0.00    -0.206 OA
BRANCH  25  28
HETATM   28  N   LIG     1     -21.825 -13.126 -13.298  1.00  0.00    -0.202 NA
HETATM   29  C   LIG     1     -23.099 -12.414 -13.612  1.00  0.00     0.134 C 
HETATM   30  C   LIG     1     -23.800 -13.146 -14.748  1.00  0.00     0.183 C 
HETATM   31  O   LIG     1     -22.950 -13.211 -15.896  1.00  0.00    -0.389 OA
HETATM   32  C   LIG     1     -21.754 -13.938 -15.608  1.00  0.00     0.183 C 
HETATM   33  C   LIG     1     -20.963 -13.241 -14.510  1.00  0.00     0.134 C 
ENDBRANCH  25  28
ENDBRANCH   1  25
TORSDOF 6
ENDMDL
MODEL 9
REMARK VINA RESULT:      -8.4      2.681      7.201
REMARK  6 active torsions:
REMARK  status: ('A' for Active; 'I' for Inactive)
REMARK    1  A    between atoms: S_2  and  N_9 
REMARK    2  A    between atoms: S_2  and  C_15 
REMARK    3  A    between atoms: O_6  and  C_19 
REMARK    4  A    between atoms: N_10  and  C_18 
REMARK       I    between atoms: N_10  and  C_21 
REMARK    5  A    between atoms: C_21  and  C_22 
REMARK    6  A    between atoms: C_23  and  C_26 
ROOT
HETATM    1  C   LIG     1     -21.722 -13.212 -10.052  1.00  0.00     0.077 A 
HETATM    2  C   LIG     1     -21.250 -14.501 -10.236  1.00  0.00     0.057 A 
HETATM    3  C   LIG     1     -22.118 -12.760  -8.803  1.00  0.00     0.028 A 
HETATM    4  C   LIG     1     -21.170 -15.362  -9.141  1.00  0.00     0.070 A 
HETATM    5  C   LIG     1     -21.564 -14.922  -7.878  1.00  0.00     0.095 A 
HETATM    6  C   LIG     1     -22.038 -13.621  -7.708  1.00  0.00     0.040 A 
ENDROOT
BRANCH   4   7
HETATM    7  N   LIG     1     -20.694 -16.662  -9.325  1.00  0.00    -0.319 N 
HETATM    8  C   LIG     1     -19.442 -17.196  -8.959  1.00  0.00     0.280 C 
HETATM    9  O   LIG     1     -18.558 -16.550  -8.400  1.00  0.00    -0.265 OA
HETATM   10  H   LIG     1     -21.341 -17.298  -9.784  1.00  0.00     0.169 HD
BRANCH   8  11
HETATM   11  C   LIG     1     -19.230 -18.605  -9.334  1.00  0.00     0.144 A 
HETATM   12  O   LIG     1     -19.445 -18.907 -10.618  1.00  0.00    -0.304 OA
HETATM   13  C   LIG     1     -19.188 -20.238 -10.706  1.00  0.00     0.088 A 
HETATM   14  C   LIG     1     -18.817 -20.742  -9.481  1.00  0.00     0.041 A 
HETATM   15  C   LIG     1     -18.850 -19.649  -8.582  1.00  0.00     0.046 A 
BRANCH  13  16
HETATM   16  C   LIG     1     -19.351 -20.811 -12.013  1.00  0.00     0.019 A 
HETATM   17  C   LIG     1     -19.368 -20.028 -13.175  1.00  0.00     0.047 A 
HETATM   18 CL   LIG     1     -19.196 -18.309 -13.112  1.00  0.00    -0.083 Cl
HETATM   19  C   LIG     1     -19.529 -20.626 -14.425  1.00  0.00     0.025 A 
HETATM   20  C   LIG     1     -19.673 -22.009 -14.523  1.00  0.00     0.002 A 
HETATM   21  C   LIG     1     -19.656 -22.796 -13.372  1.00  0.00     0.001 A 
HETATM   22  C   LIG     1     -19.495 -22.200 -12.121  1.00  0.00     0.016 A 
ENDBRANCH  13  16
ENDBRANCH   8  11
ENDBRANCH   4   7
BRANCH   5  23
HETATM   23  O   LIG     1     -21.494 -15.747  -6.795  1.00  0.00    -0.354 OA
HETATM   24  C   LIG     1     -22.627 -16.574  -6.536  1.00  0.00     0.210 C 
ENDBRANCH   5  23
BRANCH   1  25
HETATM   25  S   LIG     1     -21.823 -12.122 -11.437  1.00  0.00     0.243 S 
HETATM   26  O   LIG     1     -23.125 -11.489 -11.407  1.00  0.00    -0.206 OA
HETATM   27  O   LIG     1     -20.611 -11.333 -11.472  1.00  0.00    -0.206 OA
BRANCH  25  28
HETATM   28  N   LIG     1     -21.783 -13.260 -12.716  1.00  0.00    -0.202 NA
HETATM   29  C   LIG     1     -22.959 -13.235 -13.634  1.00  0.00     0.134 C 
HETATM   30  C   LIG     1     -22.892 -14.452 -14.547  1.00  0.00     0.183 C 
HETATM   31  O   LIG     1     -21.665 -14.455 -15.280  1.00  0.00    -0.389 OA
HETATM   32  C   LIG     1     -20.542 -14.532 -14.402  1.00  0.00     0.183 C 
HETATM   33  C   LIG     1     -20.504 -13.319 -13.483  1.00  0.00     0.134 C 
ENDBRANCH  25  28
ENDBRANCH   1  25
TORSDOF 6
ENDMDL
