MODEL 1
REMARK VINA RESULT:      -9.6      0.000      0.000
REMARK  1 active torsions:
REMARK  status: ('A' for Active; 'I' for Inactive)
REMARK    1  A    between atoms: C_10  and  C_15 
ROOT
HETATM    1 CL   LIG     1     -18.668 -19.742  -9.087  1.00  0.00    -0.084 Cl
HETATM    2  N   LIG     1     -20.668 -15.272 -12.442  1.00  0.00    -0.300 N 
HETATM    3  N   LIG     1     -21.536 -14.167  -9.729  1.00  0.00    -0.282 NA
HETATM    4  N   LIG     1     -21.220 -14.084 -14.257  1.00  0.00    -0.245 NA
HETATM    5  C   LIG     1     -20.277 -16.360 -11.626  1.00  0.00     0.053 A 
HETATM    6  C   LIG     1     -20.852 -13.969 -12.027  1.00  0.00     0.056 A 
HETATM    7  C   LIG     1     -20.563 -16.395 -10.246  1.00  0.00     0.022 A 
HETATM    8  C   LIG     1     -20.601 -13.528 -10.636  1.00  0.00     0.208 C 
HETATM    9  C   LIG     1     -21.505 -15.446  -9.565  1.00  0.00     0.077 C 
HETATM   10  C   LIG     1     -20.865 -15.266 -13.805  1.00  0.00     0.107 A 
HETATM   11  C   LIG     1     -21.214 -13.273 -13.157  1.00  0.00     0.145 A 
HETATM   12  C   LIG     1     -19.553 -17.411 -12.213  1.00  0.00     0.032 A 
HETATM   13  C   LIG     1     -20.040 -17.443  -9.469  1.00  0.00     0.040 A 
HETATM   14  C   LIG     1     -20.880 -16.465 -14.676  1.00  0.00     0.091 C 
HETATM   15  C   LIG     1     -19.065 -18.457 -11.428  1.00  0.00     0.026 A 
HETATM   16  C   LIG     1     -19.294 -18.465 -10.057  1.00  0.00     0.035 A 
ENDROOT
BRANCH   9  17
HETATM   17  C   LIG     1     -22.524 -16.013  -8.633  1.00  0.00     0.032 A 
HETATM   18  C   LIG     1     -22.237 -16.112  -7.278  1.00  0.00     0.129 A 
HETATM   19  F   LIG     1     -21.055 -15.705  -6.791  1.00  0.00    -0.205 F 
HETATM   20  C   LIG     1     -23.191 -16.641  -6.410  1.00  0.00     0.043 A 
HETATM   21  C   LIG     1     -24.424 -17.067  -6.902  1.00  0.00     0.003 A 
HETATM   22  C   LIG     1     -24.703 -16.963  -8.266  1.00  0.00     0.001 A 
HETATM   23  C   LIG     1     -23.749 -16.435  -9.134  1.00  0.00     0.017 A 
ENDBRANCH   9  17
TORSDOF 1
ENDMDL
