MODEL 1
REMARK VINA RESULT:     -10.2      0.000      0.000
REMARK  13 active torsions:
REMARK  status: ('A' for Active; 'I' for Inactive)
REMARK    1  A    between atoms: O_1  and  C_12 
REMARK    2  A    between atoms: O_1  and  C_17 
REMARK    3  A    between atoms: N_5  and  C_18 
REMARK       I    between atoms: N_5  and  C_32 
REMARK    4  A    between atoms: C_6  and  C_11 
REMARK    5  A    between atoms: C_6  and  C_12 
REMARK    6  A    between atoms: C_9  and  C_14 
REMARK    7  A    between atoms: C_11  and  C_13 
REMARK    8  A    between atoms: C_13  and  C_15 
REMARK    9  A    between atoms: C_15  and  C_16 
REMARK   10  A    between atoms: C_16  and  C_18 
REMARK   11  A    between atoms: C_17  and  C_21 
REMARK   12  A    between atoms: C_17  and  C_22 
REMARK   13  A    between atoms: C_17  and  C_23 
ROOT
HETATM    1  C   LIG     1     -22.009 -15.216  -9.610  1.00  0.00    -0.018 C 
HETATM    2  C   LIG     1     -20.930 -14.551  -8.741  1.00  0.00     0.024 C 
HETATM    3  C   LIG     1     -23.240 -14.352  -9.304  1.00  0.00     0.012 C 
HETATM    4  C   LIG     1     -21.235 -13.042  -8.801  1.00  0.00     0.056 C 
HETATM    5  C   LIG     1     -22.708 -12.921  -9.232  1.00  0.00     0.013 C 
ENDROOT
BRANCH   1   6
HETATM    6  C   LIG     1     -22.237 -16.675  -9.206  1.00  0.00     0.012 C 
BRANCH   6   7
HETATM    7  C   LIG     1     -21.324 -17.086  -8.049  1.00  0.00     0.001 C 
BRANCH   7   8
HETATM    8  C   LIG     1     -20.845 -18.532  -8.209  1.00  0.00     0.006 C 
BRANCH   8   9
HETATM    9  C   LIG     1     -19.695 -18.696  -9.232  1.00  0.00     0.004 C 
HETATM   10  C   LIG     1     -18.852 -17.419  -9.341  1.00  0.00     0.012 C 
BRANCH   9  11
HETATM   11  C   LIG     1     -18.852 -19.956  -8.899  1.00  0.00     0.084 C 
HETATM   12  C   LIG     1     -18.986 -20.399  -7.444  1.00  0.00     0.032 C 
BRANCH  11  13
HETATM   13  N   LIG     1     -19.138 -21.065  -9.778  1.00  0.00    -0.357 N 
HETATM   14  C   LIG     1     -19.135 -20.958 -11.159  1.00  0.00     0.213 C 
HETATM   15  O   LIG     1     -18.897 -19.939 -11.802  1.00  0.00    -0.274 OA
HETATM   16  C   LIG     1     -19.440 -22.268 -11.833  1.00  0.00     0.117 C 
HETATM   17  H   LIG     1     -19.275 -21.982  -9.364  1.00  0.00     0.162 HD
ENDBRANCH  11  13
ENDBRANCH   9  11
ENDBRANCH   8   9
ENDBRANCH   7   8
ENDBRANCH   6   7
ENDBRANCH   1   6
BRANCH   1  18
HETATM   18  C   LIG     1     -21.638 -15.158 -11.100  1.00  0.00     0.179 C 
BRANCH  18  19
HETATM   19  O   LIG     1     -22.675 -15.772 -11.835  1.00  0.00    -0.365 OA
BRANCH  19  20
HETATM   20  C   LIG     1     -22.386 -15.815 -13.229  1.00  0.00     0.142 C 
BRANCH  20  21
HETATM   21  C   LIG     1     -20.848 -15.830 -13.385  1.00  0.00    -0.015 A 
HETATM   22  C   LIG     1     -20.108 -16.904 -12.892  1.00  0.00     0.011 A 
HETATM   23  C   LIG     1     -18.720 -16.917 -13.033  1.00  0.00     0.001 A 
HETATM   24  C   LIG     1     -18.073 -15.857 -13.666  1.00  0.00     0.000 A 
HETATM   25  C   LIG     1     -18.814 -14.782 -14.159  1.00  0.00     0.001 A 
HETATM   26  C   LIG     1     -20.201 -14.769 -14.018  1.00  0.00     0.011 A 
ENDBRANCH  20  21
BRANCH  20  27
HETATM   27  C   LIG     1     -23.070 -17.101 -13.743  1.00  0.00    -0.015 A 
HETATM   28  C   LIG     1     -24.322 -17.469 -13.250  1.00  0.00     0.011 A 
HETATM   29  C   LIG     1     -24.939 -18.631 -13.714  1.00  0.00     0.001 A 
HETATM   30  C   LIG     1     -24.306 -19.423 -14.671  1.00  0.00     0.000 A 
HETATM   31  C   LIG     1     -23.055 -19.054 -15.164  1.00  0.00     0.001 A 
HETATM   32  C   LIG     1     -22.436 -17.893 -14.701  1.00  0.00     0.011 A 
ENDBRANCH  20  27
BRANCH  20  33
HETATM   33  C   LIG     1     -23.034 -14.538 -13.810  1.00  0.00    -0.015 A 
HETATM   34  C   LIG     1     -23.066 -13.367 -13.055  1.00  0.00     0.011 A 
HETATM   35  C   LIG     1     -23.650 -12.214 -13.579  1.00  0.00     0.001 A 
HETATM   36  C   LIG     1     -24.204 -12.233 -14.860  1.00  0.00     0.000 A 
HETATM   37  C   LIG     1     -24.171 -13.406 -15.615  1.00  0.00     0.001 A 
HETATM   38  C   LIG     1     -23.587 -14.558 -15.091  1.00  0.00     0.011 A 
ENDBRANCH  20  33
ENDBRANCH  19  20
ENDBRANCH  18  19
ENDBRANCH   1  18
BRANCH   4  39
HETATM   39  C   LIG     1     -20.920 -12.328  -7.501  1.00  0.00     0.107 A 
HETATM   40  N   LIG     1     -21.912 -11.817  -6.711  1.00  0.00    -0.353 N 
HETATM   41  C   LIG     1     -21.316 -11.241  -5.625  1.00  0.00     0.109 A 
HETATM   42  H   LIG     1     -22.906 -11.856  -6.895  1.00  0.00     0.166 HD
HETATM   43  C   LIG     1     -19.969 -11.438  -5.818  1.00  0.00     0.135 A 
HETATM   44  N   LIG     1     -19.729 -12.114  -6.989  1.00  0.00    -0.246 NA
ENDBRANCH   4  39
TORSDOF 13
ENDMDL
MODEL 2
REMARK VINA RESULT:     -10.1      0.072      3.488
REMARK  13 active torsions:
REMARK  status: ('A' for Active; 'I' for Inactive)
REMARK    1  A    between atoms: O_1  and  C_12 
REMARK    2  A    between atoms: O_1  and  C_17 
REMARK    3  A    between atoms: N_5  and  C_18 
REMARK       I    between atoms: N_5  and  C_32 
REMARK    4  A    between atoms: C_6  and  C_11 
REMARK    5  A    between atoms: C_6  and  C_12 
REMARK    6  A    between atoms: C_9  and  C_14 
REMARK    7  A    between atoms: C_11  and  C_13 
REMARK    8  A    between atoms: C_13  and  C_15 
REMARK    9  A    between atoms: C_15  and  C_16 
REMARK   10  A    between atoms: C_16  and  C_18 
REMARK   11  A    between atoms: C_17  and  C_21 
REMARK   12  A    between atoms: C_17  and  C_22 
REMARK   13  A    between atoms: C_17  and  C_23 
ROOT
HETATM    1  C   LIG     1     -22.035 -15.174  -9.657  1.00  0.00    -0.018 C 
HETATM    2  C   LIG     1     -20.942 -14.507  -8.807  1.00  0.00     0.024 C 
HETATM    3  C   LIG     1     -23.273 -14.342  -9.293  1.00  0.00     0.012 C 
HETATM    4  C   LIG     1     -21.279 -13.003  -8.823  1.00  0.00     0.056 C 
HETATM    5  C   LIG     1     -22.767 -12.903  -9.205  1.00  0.00     0.013 C 
ENDROOT
BRANCH   1   6
HETATM    6  C   LIG     1     -22.221 -16.646  -9.281  1.00  0.00     0.012 C 
BRANCH   6   7
HETATM    7  C   LIG     1     -21.287 -17.055  -8.140  1.00  0.00     0.001 C 
BRANCH   7   8
HETATM    8  C   LIG     1     -20.834 -18.511  -8.290  1.00  0.00     0.006 C 
BRANCH   8   9
HETATM    9  C   LIG     1     -19.640 -18.693  -9.257  1.00  0.00     0.004 C 
HETATM   10  C   LIG     1     -18.774 -17.429  -9.327  1.00  0.00     0.012 C 
BRANCH   9  11
HETATM   11  C   LIG     1     -18.831 -19.964  -8.881  1.00  0.00     0.084 C 
HETATM   12  C   LIG     1     -19.015 -20.383  -7.424  1.00  0.00     0.032 C 
BRANCH  11  13
HETATM   13  N   LIG     1     -19.114 -21.081  -9.752  1.00  0.00    -0.357 N 
HETATM   14  C   LIG     1     -19.126 -20.981 -11.133  1.00  0.00     0.213 C 
HETATM   15  O   LIG     1     -18.905 -19.963 -11.784  1.00  0.00    -0.274 OA
HETATM   16  C   LIG     1     -19.424 -22.298 -11.797  1.00  0.00     0.117 C 
HETATM   17  H   LIG     1     -19.238 -21.997  -9.331  1.00  0.00     0.162 HD
ENDBRANCH  11  13
ENDBRANCH   9  11
ENDBRANCH   8   9
ENDBRANCH   7   8
ENDBRANCH   6   7
ENDBRANCH   1   6
BRANCH   1  18
HETATM   18  C   LIG     1     -21.713 -15.075 -11.157  1.00  0.00     0.179 C 
BRANCH  18  19
HETATM   19  O   LIG     1     -22.705 -15.787 -11.867  1.00  0.00    -0.365 OA
BRANCH  19  20
HETATM   20  C   LIG     1     -22.443 -15.809 -13.267  1.00  0.00     0.142 C 
BRANCH  20  21
HETATM   21  C   LIG     1     -23.082 -14.542 -13.880  1.00  0.00    -0.015 A 
HETATM   22  C   LIG     1     -23.114 -13.354 -13.150  1.00  0.00     0.011 A 
HETATM   23  C   LIG     1     -23.691 -12.211 -13.703  1.00  0.00     0.001 A 
HETATM   24  C   LIG     1     -24.235 -12.256 -14.985  1.00  0.00     0.000 A 
HETATM   25  C   LIG     1     -24.204 -13.444 -15.716  1.00  0.00     0.001 A 
HETATM   26  C   LIG     1     -23.627 -14.587 -15.163  1.00  0.00     0.011 A 
ENDBRANCH  20  21
BRANCH  20  27
HETATM   27  C   LIG     1     -20.904 -15.843 -13.388  1.00  0.00    -0.015 A 
HETATM   28  C   LIG     1     -20.185 -16.907 -12.844  1.00  0.00     0.011 A 
HETATM   29  C   LIG     1     -18.794 -16.937 -12.953  1.00  0.00     0.001 A 
HETATM   30  C   LIG     1     -18.124 -15.904 -13.607  1.00  0.00     0.000 A 
HETATM   31  C   LIG     1     -18.843 -14.841 -14.152  1.00  0.00     0.001 A 
HETATM   32  C   LIG     1     -20.233 -14.809 -14.042  1.00  0.00     0.011 A 
ENDBRANCH  20  27
BRANCH  20  33
HETATM   33  C   LIG     1     -23.096 -17.114 -13.774  1.00  0.00    -0.015 A 
HETATM   34  C   LIG     1     -24.346 -17.502 -13.292  1.00  0.00     0.011 A 
HETATM   35  C   LIG     1     -24.935 -18.680 -13.750  1.00  0.00     0.001 A 
HETATM   36  C   LIG     1     -24.276 -19.471 -14.691  1.00  0.00     0.000 A 
HETATM   37  C   LIG     1     -23.025 -19.082 -15.174  1.00  0.00     0.001 A 
HETATM   38  C   LIG     1     -22.436 -17.904 -14.715  1.00  0.00     0.011 A 
ENDBRANCH  20  33
ENDBRANCH  19  20
ENDBRANCH  18  19
ENDBRANCH   1  18
BRANCH   4  39
HETATM   39  C   LIG     1     -20.937 -12.312  -7.518  1.00  0.00     0.107 A 
HETATM   40  N   LIG     1     -21.912 -11.802  -6.706  1.00  0.00    -0.353 N 
HETATM   41  C   LIG     1     -21.293 -11.250  -5.620  1.00  0.00     0.109 A 
HETATM   42  H   LIG     1     -22.909 -11.827  -6.875  1.00  0.00     0.166 HD
HETATM   43  C   LIG     1     -19.952 -11.458  -5.836  1.00  0.00     0.135 A 
HETATM   44  N   LIG     1     -19.736 -12.119  -7.020  1.00  0.00    -0.246 NA
ENDBRANCH   4  39
TORSDOF 13
ENDMDL
MODEL 3
REMARK VINA RESULT:     -10.1      3.362      7.163
REMARK  13 active torsions:
REMARK  status: ('A' for Active; 'I' for Inactive)
REMARK    1  A    between atoms: O_1  and  C_12 
REMARK    2  A    between atoms: O_1  and  C_17 
REMARK    3  A    between atoms: N_5  and  C_18 
REMARK       I    between atoms: N_5  and  C_32 
REMARK    4  A    between atoms: C_6  and  C_11 
REMARK    5  A    between atoms: C_6  and  C_12 
REMARK    6  A    between atoms: C_9  and  C_14 
REMARK    7  A    between atoms: C_11  and  C_13 
REMARK    8  A    between atoms: C_13  and  C_15 
REMARK    9  A    between atoms: C_15  and  C_16 
REMARK   10  A    between atoms: C_16  and  C_18 
REMARK   11  A    between atoms: C_17  and  C_21 
REMARK   12  A    between atoms: C_17  and  C_22 
REMARK   13  A    between atoms: C_17  and  C_23 
ROOT
HETATM    1  C   LIG     1     -22.672 -15.773 -13.605  1.00  0.00    -0.018 C 
HETATM    2  C   LIG     1     -23.709 -15.168 -14.564  1.00  0.00     0.024 C 
HETATM    3  C   LIG     1     -21.357 -15.208 -14.161  1.00  0.00     0.012 C 
HETATM    4  C   LIG     1     -23.188 -13.753 -14.884  1.00  0.00     0.056 C 
HETATM    5  C   LIG     1     -21.684 -13.768 -14.555  1.00  0.00     0.013 C 
ENDROOT
BRANCH   1   6
HETATM    6  C   LIG     1     -22.686 -17.303 -13.652  1.00  0.00     0.012 C 
BRANCH   6   7
HETATM    7  C   LIG     1     -22.247 -17.826 -15.021  1.00  0.00     0.001 C 
BRANCH   7   8
HETATM    8  C   LIG     1     -23.273 -18.808 -15.594  1.00  0.00     0.006 C 
BRANCH   8   9
HETATM    9  C   LIG     1     -23.557 -20.017 -14.671  1.00  0.00     0.004 C 
HETATM   10  C   LIG     1     -25.062 -20.299 -14.559  1.00  0.00     0.012 C 
BRANCH   9  11
HETATM   11  C   LIG     1     -22.740 -21.253 -15.135  1.00  0.00     0.084 C 
HETATM   12  C   LIG     1     -21.314 -21.268 -14.589  1.00  0.00     0.032 C 
BRANCH  11  13
HETATM   13  N   LIG     1     -23.397 -22.502 -14.826  1.00  0.00    -0.357 N 
HETATM   14  C   LIG     1     -24.107 -23.236 -15.761  1.00  0.00     0.213 C 
HETATM   15  O   LIG     1     -24.270 -22.935 -16.941  1.00  0.00    -0.274 OA
HETATM   16  C   LIG     1     -24.669 -24.506 -15.181  1.00  0.00     0.117 C 
HETATM   17  H   LIG     1     -23.270 -22.893 -13.898  1.00  0.00     0.162 HD
ENDBRANCH  11  13
ENDBRANCH   9  11
ENDBRANCH   8   9
ENDBRANCH   7   8
ENDBRANCH   6   7
ENDBRANCH   1   6
BRANCH   1  18
HETATM   18  C   LIG     1     -22.915 -15.311 -12.159  1.00  0.00     0.179 C 
BRANCH  18  19
HETATM   19  O   LIG     1     -22.544 -16.364 -11.294  1.00  0.00    -0.365 OA
BRANCH  19  20
HETATM   20  C   LIG     1     -21.804 -15.894 -10.171  1.00  0.00     0.142 C 
BRANCH  20  21
HETATM   21  C   LIG     1     -20.426 -16.591 -10.197  1.00  0.00    -0.015 A 
HETATM   22  C   LIG     1     -19.921 -17.094 -11.396  1.00  0.00     0.011 A 
HETATM   23  C   LIG     1     -18.676 -17.723 -11.420  1.00  0.00     0.001 A 
HETATM   24  C   LIG     1     -17.936 -17.849 -10.244  1.00  0.00     0.000 A 
HETATM   25  C   LIG     1     -18.441 -17.347  -9.044  1.00  0.00     0.001 A 
HETATM   26  C   LIG     1     -19.686 -16.718  -9.022  1.00  0.00     0.011 A 
ENDBRANCH  20  21
BRANCH  20  27
HETATM   27  C   LIG     1     -21.725 -14.363 -10.355  1.00  0.00    -0.015 A 
HETATM   28  C   LIG     1     -20.642 -13.797 -11.028  1.00  0.00     0.011 A 
HETATM   29  C   LIG     1     -20.570 -12.414 -11.194  1.00  0.00     0.001 A 
HETATM   30  C   LIG     1     -21.581 -11.597 -10.689  1.00  0.00     0.000 A 
HETATM   31  C   LIG     1     -22.664 -12.164 -10.017  1.00  0.00     0.001 A 
HETATM   32  C   LIG     1     -22.737 -13.547  -9.850  1.00  0.00     0.011 A 
ENDBRANCH  20  27
BRANCH  20  33
HETATM   33  C   LIG     1     -22.652 -16.290  -8.941  1.00  0.00    -0.015 A 
HETATM   34  C   LIG     1     -23.965 -16.729  -9.111  1.00  0.00     0.011 A 
HETATM   35  C   LIG     1     -24.730 -17.086  -8.001  1.00  0.00     0.001 A 
HETATM   36  C   LIG     1     -24.182 -17.005  -6.720  1.00  0.00     0.000 A 
HETATM   37  C   LIG     1     -22.868 -16.566  -6.551  1.00  0.00     0.001 A 
HETATM   38  C   LIG     1     -22.104 -16.209  -7.661  1.00  0.00     0.011 A 
ENDBRANCH  20  33
ENDBRANCH  19  20
ENDBRANCH  18  19
ENDBRANCH   1  18
BRANCH   4  39
HETATM   39  C   LIG     1     -23.497 -13.322 -16.304  1.00  0.00     0.107 A 
HETATM   40  N   LIG     1     -23.692 -12.007 -16.622  1.00  0.00    -0.353 N 
HETATM   41  C   LIG     1     -23.949 -11.942 -17.962  1.00  0.00     0.109 A 
HETATM   42  H   LIG     1     -23.655 -11.222 -15.983  1.00  0.00     0.166 HD
HETATM   43  C   LIG     1     -23.894 -13.246 -18.393  1.00  0.00     0.135 A 
HETATM   44  N   LIG     1     -23.614 -14.101 -17.356  1.00  0.00    -0.246 NA
ENDBRANCH   4  39
TORSDOF 13
ENDMDL
MODEL 4
REMARK VINA RESULT:     -10.1      3.373      7.035
REMARK  13 active torsions:
REMARK  status: ('A' for Active; 'I' for Inactive)
REMARK    1  A    between atoms: O_1  and  C_12 
REMARK    2  A    between atoms: O_1  and  C_17 
REMARK    3  A    between atoms: N_5  and  C_18 
REMARK       I    between atoms: N_5  and  C_32 
REMARK    4  A    between atoms: C_6  and  C_11 
REMARK    5  A    between atoms: C_6  and  C_12 
REMARK    6  A    between atoms: C_9  and  C_14 
REMARK    7  A    between atoms: C_11  and  C_13 
REMARK    8  A    between atoms: C_13  and  C_15 
REMARK    9  A    between atoms: C_15  and  C_16 
REMARK   10  A    between atoms: C_16  and  C_18 
REMARK   11  A    between atoms: C_17  and  C_21 
REMARK   12  A    between atoms: C_17  and  C_22 
REMARK   13  A    between atoms: C_17  and  C_23 
ROOT
HETATM    1  C   LIG     1     -22.786 -15.761 -13.629  1.00  0.00    -0.018 C 
HETATM    2  C   LIG     1     -23.799 -15.048 -14.538  1.00  0.00     0.024 C 
HETATM    3  C   LIG     1     -21.448 -15.352 -14.261  1.00  0.00     0.012 C 
HETATM    4  C   LIG     1     -23.140 -13.703 -14.902  1.00  0.00     0.056 C 
HETATM    5  C   LIG     1     -21.631 -13.887 -14.655  1.00  0.00     0.013 C 
ENDROOT
BRANCH   1   6
HETATM    6  C   LIG     1     -22.976 -17.279 -13.656  1.00  0.00     0.012 C 
BRANCH   6   7
HETATM    7  C   LIG     1     -22.261 -17.912 -14.852  1.00  0.00     0.001 C 
BRANCH   7   8
HETATM    8  C   LIG     1     -23.169 -18.913 -15.574  1.00  0.00     0.006 C 
BRANCH   8   9
HETATM    9  C   LIG     1     -23.562 -20.133 -14.706  1.00  0.00     0.004 C 
HETATM   10  C   LIG     1     -25.074 -20.388 -14.745  1.00  0.00     0.012 C 
BRANCH   9  11
HETATM   11  C   LIG     1     -22.725 -21.375 -15.112  1.00  0.00     0.084 C 
HETATM   12  C   LIG     1     -21.332 -21.391 -14.486  1.00  0.00     0.032 C 
BRANCH  11  13
HETATM   13  N   LIG     1     -23.403 -22.618 -14.830  1.00  0.00    -0.357 N 
HETATM   14  C   LIG     1     -24.105 -23.332 -15.787  1.00  0.00     0.213 C 
HETATM   15  O   LIG     1     -24.243 -23.015 -16.966  1.00  0.00    -0.274 OA
HETATM   16  C   LIG     1     -24.694 -24.602 -15.233  1.00  0.00     0.117 C 
HETATM   17  H   LIG     1     -23.298 -23.023 -13.905  1.00  0.00     0.162 HD
ENDBRANCH  11  13
ENDBRANCH   9  11
ENDBRANCH   8   9
ENDBRANCH   7   8
ENDBRANCH   6   7
ENDBRANCH   1   6
BRANCH   1  18
HETATM   18  C   LIG     1     -22.895 -15.266 -12.177  1.00  0.00     0.179 C 
BRANCH  18  19
HETATM   19  O   LIG     1     -22.547 -16.335 -11.322  1.00  0.00    -0.365 OA
BRANCH  19  20
HETATM   20  C   LIG     1     -21.832 -15.886 -10.174  1.00  0.00     0.142 C 
BRANCH  20  21
HETATM   21  C   LIG     1     -22.653 -16.287  -8.928  1.00  0.00    -0.015 A 
HETATM   22  C   LIG     1     -22.066 -16.246  -7.664  1.00  0.00     0.011 A 
HETATM   23  C   LIG     1     -22.807 -16.607  -6.538  1.00  0.00     0.001 A 
HETATM   24  C   LIG     1     -24.134 -17.009  -6.678  1.00  0.00     0.000 A 
HETATM   25  C   LIG     1     -24.722 -17.050  -7.943  1.00  0.00     0.001 A 
HETATM   26  C   LIG     1     -23.981 -16.689  -9.067  1.00  0.00     0.011 A 
ENDBRANCH  20  21
BRANCH  20  27
HETATM   27  C   LIG     1     -20.458 -16.585 -10.259  1.00  0.00    -0.015 A 
HETATM   28  C   LIG     1     -19.676 -16.727  -9.112  1.00  0.00     0.011 A 
HETATM   29  C   LIG     1     -18.435 -17.358  -9.189  1.00  0.00     0.001 A 
HETATM   30  C   LIG     1     -17.976 -17.849 -10.411  1.00  0.00     0.000 A 
HETATM   31  C   LIG     1     -18.758 -17.708 -11.557  1.00  0.00     0.001 A 
HETATM   32  C   LIG     1     -19.999 -17.076 -11.481  1.00  0.00     0.011 A 
ENDBRANCH  20  27
BRANCH  20  33
HETATM   33  C   LIG     1     -21.719 -14.355 -10.350  1.00  0.00    -0.015 A 
HETATM   34  C   LIG     1     -20.664 -13.812 -11.082  1.00  0.00     0.011 A 
HETATM   35  C   LIG     1     -20.562 -12.431 -11.241  1.00  0.00     0.001 A 
HETATM   36  C   LIG     1     -21.516 -11.590 -10.666  1.00  0.00     0.000 A 
HETATM   37  C   LIG     1     -22.572 -12.133  -9.933  1.00  0.00     0.001 A 
HETATM   38  C   LIG     1     -22.673 -13.515  -9.775  1.00  0.00     0.011 A 
ENDBRANCH  20  33
ENDBRANCH  19  20
ENDBRANCH  18  19
ENDBRANCH   1  18
BRANCH   4  39
HETATM   39  C   LIG     1     -23.475 -13.248 -16.309  1.00  0.00     0.107 A 
HETATM   40  N   LIG     1     -23.733 -11.935 -16.590  1.00  0.00    -0.353 N 
HETATM   41  C   LIG     1     -23.999 -11.846 -17.927  1.00  0.00     0.109 A 
HETATM   42  H   LIG     1     -23.728 -11.168 -15.930  1.00  0.00     0.166 HD
HETATM   43  C   LIG     1     -23.887 -13.134 -18.393  1.00  0.00     0.135 A 
HETATM   44  N   LIG     1     -23.562 -14.003 -17.381  1.00  0.00    -0.246 NA
ENDBRANCH   4  39
TORSDOF 13
ENDMDL
MODEL 5
REMARK VINA RESULT:     -10.0      3.379      7.195
REMARK  13 active torsions:
REMARK  status: ('A' for Active; 'I' for Inactive)
REMARK    1  A    between atoms: O_1  and  C_12 
REMARK    2  A    between atoms: O_1  and  C_17 
REMARK    3  A    between atoms: N_5  and  C_18 
REMARK       I    between atoms: N_5  and  C_32 
REMARK    4  A    between atoms: C_6  and  C_11 
REMARK    5  A    between atoms: C_6  and  C_12 
REMARK    6  A    between atoms: C_9  and  C_14 
REMARK    7  A    between atoms: C_11  and  C_13 
REMARK    8  A    between atoms: C_13  and  C_15 
REMARK    9  A    between atoms: C_15  and  C_16 
REMARK   10  A    between atoms: C_16  and  C_18 
REMARK   11  A    between atoms: C_17  and  C_21 
REMARK   12  A    between atoms: C_17  and  C_22 
REMARK   13  A    between atoms: C_17  and  C_23 
ROOT
HETATM    1  C   LIG     1     -22.806 -15.811 -13.627  1.00  0.00    -0.018 C 
HETATM    2  C   LIG     1     -23.813 -15.126 -14.564  1.00  0.00     0.024 C 
HETATM    3  C   LIG     1     -21.464 -15.356 -14.218  1.00  0.00     0.012 C 
HETATM    4  C   LIG     1     -23.187 -13.760 -14.904  1.00  0.00     0.056 C 
HETATM    5  C   LIG     1     -21.681 -13.896 -14.613  1.00  0.00     0.013 C 
ENDROOT
BRANCH   1   6
HETATM    6  C   LIG     1     -22.946 -17.334 -13.666  1.00  0.00     0.012 C 
BRANCH   6   7
HETATM    7  C   LIG     1     -22.280 -17.927 -14.908  1.00  0.00     0.001 C 
BRANCH   7   8
HETATM    8  C   LIG     1     -23.202 -18.935 -15.603  1.00  0.00     0.006 C 
BRANCH   8   9
HETATM    9  C   LIG     1     -23.566 -20.153 -14.722  1.00  0.00     0.004 C 
HETATM   10  C   LIG     1     -25.075 -20.429 -14.738  1.00  0.00     0.012 C 
BRANCH   9  11
HETATM   11  C   LIG     1     -22.718 -21.387 -15.133  1.00  0.00     0.084 C 
HETATM   12  C   LIG     1     -21.318 -21.382 -14.524  1.00  0.00     0.032 C 
BRANCH  11  13
HETATM   13  N   LIG     1     -23.377 -22.638 -14.836  1.00  0.00    -0.357 N 
HETATM   14  C   LIG     1     -24.106 -23.350 -15.773  1.00  0.00     0.213 C 
HETATM   15  O   LIG     1     -24.286 -23.027 -16.944  1.00  0.00    -0.274 OA
HETATM   16  C   LIG     1     -24.666 -24.629 -15.208  1.00  0.00     0.117 C 
HETATM   17  H   LIG     1     -23.237 -23.048 -13.918  1.00  0.00     0.162 HD
ENDBRANCH  11  13
ENDBRANCH   9  11
ENDBRANCH   8   9
ENDBRANCH   7   8
ENDBRANCH   6   7
ENDBRANCH   1   6
BRANCH   1  18
HETATM   18  C   LIG     1     -22.974 -15.325 -12.178  1.00  0.00     0.179 C 
BRANCH  18  19
HETATM   19  O   LIG     1     -22.536 -16.355 -11.317  1.00  0.00    -0.365 OA
BRANCH  19  20
HETATM   20  C   LIG     1     -21.806 -15.843 -10.206  1.00  0.00     0.142 C 
BRANCH  20  21
HETATM   21  C   LIG     1     -21.690 -14.314 -10.390  1.00  0.00    -0.015 A 
HETATM   22  C   LIG     1     -20.611 -13.776 -11.092  1.00  0.00     0.011 A 
HETATM   23  C   LIG     1     -20.506 -12.395 -11.259  1.00  0.00     0.001 A 
HETATM   24  C   LIG     1     -21.479 -11.552 -10.724  1.00  0.00     0.000 A 
HETATM   25  C   LIG     1     -22.559 -12.090 -10.021  1.00  0.00     0.001 A 
HETATM   26  C   LIG     1     -22.663 -13.470  -9.855  1.00  0.00     0.011 A 
ENDBRANCH  20  21
BRANCH  20  27
HETATM   27  C   LIG     1     -22.626 -16.254  -8.963  1.00  0.00    -0.015 A 
HETATM   28  C   LIG     1     -23.942 -16.695  -9.110  1.00  0.00     0.011 A 
HETATM   29  C   LIG     1     -24.682 -17.065  -7.988  1.00  0.00     0.001 A 
HETATM   30  C   LIG     1     -24.107 -16.997  -6.719  1.00  0.00     0.000 A 
HETATM   31  C   LIG     1     -22.791 -16.558  -6.572  1.00  0.00     0.001 A 
HETATM   32  C   LIG     1     -22.051 -16.186  -7.694  1.00  0.00     0.011 A 
ENDBRANCH  20  27
BRANCH  20  33
HETATM   33  C   LIG     1     -20.438 -16.559 -10.263  1.00  0.00    -0.015 A 
HETATM   34  C   LIG     1     -19.950 -17.035 -11.480  1.00  0.00     0.011 A 
HETATM   35  C   LIG     1     -18.715 -17.680 -11.532  1.00  0.00     0.001 A 
HETATM   36  C   LIG     1     -17.967 -17.850 -10.368  1.00  0.00     0.000 A 
HETATM   37  C   LIG     1     -18.455 -17.374  -9.150  1.00  0.00     0.001 A 
HETATM   38  C   LIG     1     -19.690 -16.729  -9.098  1.00  0.00     0.011 A 
ENDBRANCH  20  33
ENDBRANCH  19  20
ENDBRANCH  18  19
ENDBRANCH   1  18
BRANCH   4  39
HETATM   39  C   LIG     1     -23.495 -13.310 -16.319  1.00  0.00     0.107 A 
HETATM   40  N   LIG     1     -23.679 -11.989 -16.622  1.00  0.00    -0.353 N 
HETATM   41  C   LIG     1     -23.938 -11.908 -17.960  1.00  0.00     0.109 A 
HETATM   42  H   LIG     1     -23.633 -11.213 -15.974  1.00  0.00     0.166 HD
HETATM   43  C   LIG     1     -23.896 -13.207 -18.406  1.00  0.00     0.135 A 
HETATM   44  N   LIG     1     -23.621 -14.076 -17.380  1.00  0.00    -0.246 NA
ENDBRANCH   4  39
TORSDOF 13
ENDMDL
MODEL 6
REMARK VINA RESULT:     -10.0      0.084      3.470
REMARK  13 active torsions:
REMARK  status: ('A' for Active; 'I' for Inactive)
REMARK    1  A    between atoms: O_1  and  C_12 
REMARK    2  A    between atoms: O_1  and  C_17 
REMARK    3  A    between atoms: N_5  and  C_18 
REMARK       I    between atoms: N_5  and  C_32 
REMARK    4  A    between atoms: C_6  and  C_11 
REMARK    5  A    between atoms: C_6  and  C_12 
REMARK    6  A    between atoms: C_9  and  C_14 
REMARK    7  A    between atoms: C_11  and  C_13 
REMARK    8  A    between atoms: C_13  and  C_15 
REMARK    9  A    between atoms: C_15  and  C_16 
REMARK   10  A    between atoms: C_16  and  C_18 
REMARK   11  A    between atoms: C_17  and  C_21 
REMARK   12  A    between atoms: C_17  and  C_22 
REMARK   13  A    between atoms: C_17  and  C_23 
ROOT
HETATM    1  C   LIG     1     -22.030 -15.193  -9.594  1.00  0.00    -0.018 C 
HETATM    2  C   LIG     1     -20.939 -14.531  -8.738  1.00  0.00     0.024 C 
HETATM    3  C   LIG     1     -23.254 -14.323  -9.275  1.00  0.00     0.012 C 
HETATM    4  C   LIG     1     -21.238 -13.021  -8.795  1.00  0.00     0.056 C 
HETATM    5  C   LIG     1     -22.716 -12.894  -9.210  1.00  0.00     0.013 C 
ENDROOT
BRANCH   1   6
HETATM    6  C   LIG     1     -22.259 -16.650  -9.187  1.00  0.00     0.012 C 
BRANCH   6   7
HETATM    7  C   LIG     1     -21.291 -17.083  -8.084  1.00  0.00     0.001 C 
BRANCH   7   8
HETATM    8  C   LIG     1     -20.851 -18.538  -8.274  1.00  0.00     0.006 C 
BRANCH   8   9
HETATM    9  C   LIG     1     -19.644 -18.702  -9.228  1.00  0.00     0.004 C 
HETATM   10  C   LIG     1     -18.780 -17.435  -9.266  1.00  0.00     0.012 C 
BRANCH   9  11
HETATM   11  C   LIG     1     -18.837 -19.977  -8.862  1.00  0.00     0.084 C 
HETATM   12  C   LIG     1     -19.035 -20.417  -7.413  1.00  0.00     0.032 C 
BRANCH  11  13
HETATM   13  N   LIG     1     -19.110 -21.081  -9.752  1.00  0.00    -0.357 N 
HETATM   14  C   LIG     1     -19.123 -20.958 -11.131  1.00  0.00     0.213 C 
HETATM   15  O   LIG     1     -18.911 -19.927 -11.765  1.00  0.00    -0.274 OA
HETATM   16  C   LIG     1     -19.410 -22.267 -11.818  1.00  0.00     0.117 C 
HETATM   17  H   LIG     1     -19.227 -22.006  -9.347  1.00  0.00     0.162 HD
ENDBRANCH  11  13
ENDBRANCH   9  11
ENDBRANCH   8   9
ENDBRANCH   7   8
ENDBRANCH   6   7
ENDBRANCH   1   6
BRANCH   1  18
HETATM   18  C   LIG     1     -21.675 -15.137 -11.088  1.00  0.00     0.179 C 
BRANCH  18  19
HETATM   19  O   LIG     1     -22.718 -15.758 -11.811  1.00  0.00    -0.365 OA
BRANCH  19  20
HETATM   20  C   LIG     1     -22.438 -15.814 -13.206  1.00  0.00     0.142 C 
BRANCH  20  21
HETATM   21  C   LIG     1     -23.065 -17.116 -13.755  1.00  0.00    -0.015 A 
HETATM   22  C   LIG     1     -24.336 -17.508 -13.334  1.00  0.00     0.011 A 
HETATM   23  C   LIG     1     -24.902 -18.683 -13.829  1.00  0.00     0.001 A 
HETATM   24  C   LIG     1     -24.198 -19.464 -14.745  1.00  0.00     0.000 A 
HETATM   25  C   LIG     1     -22.927 -19.071 -15.166  1.00  0.00     0.001 A 
HETATM   26  C   LIG     1     -22.361 -17.897 -14.670  1.00  0.00     0.011 A 
ENDBRANCH  20  21
BRANCH  20  27
HETATM   27  C   LIG     1     -23.065 -14.532 -13.794  1.00  0.00    -0.015 A 
HETATM   28  C   LIG     1     -23.080 -13.355 -13.045  1.00  0.00     0.011 A 
HETATM   29  C   LIG     1     -23.647 -12.197 -13.577  1.00  0.00     0.001 A 
HETATM   30  C   LIG     1     -24.198 -12.214 -14.858  1.00  0.00     0.000 A 
HETATM   31  C   LIG     1     -24.182 -13.391 -15.607  1.00  0.00     0.001 A 
HETATM   32  C   LIG     1     -23.616 -14.550 -15.076  1.00  0.00     0.011 A 
ENDBRANCH  20  27
BRANCH  20  33
HETATM   33  C   LIG     1     -20.896 -15.806 -13.303  1.00  0.00    -0.015 A 
HETATM   34  C   LIG     1     -20.154 -16.825 -12.707  1.00  0.00     0.011 A 
HETATM   35  C   LIG     1     -18.762 -16.818 -12.795  1.00  0.00     0.001 A 
HETATM   36  C   LIG     1     -18.111 -15.791 -13.479  1.00  0.00     0.000 A 
HETATM   37  C   LIG     1     -18.854 -14.771 -14.076  1.00  0.00     0.001 A 
HETATM   38  C   LIG     1     -20.246 -14.778 -13.988  1.00  0.00     0.011 A 
ENDBRANCH  20  33
ENDBRANCH  19  20
ENDBRANCH  18  19
ENDBRANCH   1  18
BRANCH   4  39
HETATM   39  C   LIG     1     -20.906 -12.307  -7.500  1.00  0.00     0.107 A 
HETATM   40  N   LIG     1     -21.888 -11.815  -6.686  1.00  0.00    -0.353 N 
HETATM   41  C   LIG     1     -21.277 -11.235  -5.611  1.00  0.00     0.109 A 
HETATM   42  H   LIG     1     -22.886 -11.869  -6.848  1.00  0.00     0.166 HD
HETATM   43  C   LIG     1     -19.932 -11.409  -5.835  1.00  0.00     0.135 A 
HETATM   44  N   LIG     1     -19.707 -12.076  -7.013  1.00  0.00    -0.246 NA
ENDBRANCH   4  39
TORSDOF 13
ENDMDL
MODEL 7
REMARK VINA RESULT:      -9.8      3.187      7.076
REMARK  13 active torsions:
REMARK  status: ('A' for Active; 'I' for Inactive)
REMARK    1  A    between atoms: O_1  and  C_12 
REMARK    2  A    between atoms: O_1  and  C_17 
REMARK    3  A    between atoms: N_5  and  C_18 
REMARK       I    between atoms: N_5  and  C_32 
REMARK    4  A    between atoms: C_6  and  C_11 
REMARK    5  A    between atoms: C_6  and  C_12 
REMARK    6  A    between atoms: C_9  and  C_14 
REMARK    7  A    between atoms: C_11  and  C_13 
REMARK    8  A    between atoms: C_13  and  C_15 
REMARK    9  A    between atoms: C_15  and  C_16 
REMARK   10  A    between atoms: C_16  and  C_18 
REMARK   11  A    between atoms: C_17  and  C_21 
REMARK   12  A    between atoms: C_17  and  C_22 
REMARK   13  A    between atoms: C_17  and  C_23 
ROOT
HETATM    1  C   LIG     1     -22.708 -15.848 -13.670  1.00  0.00    -0.018 C 
HETATM    2  C   LIG     1     -23.739 -15.243 -14.637  1.00  0.00     0.024 C 
HETATM    3  C   LIG     1     -21.395 -15.242 -14.186  1.00  0.00     0.012 C 
HETATM    4  C   LIG     1     -23.243 -13.811 -14.914  1.00  0.00     0.056 C 
HETATM    5  C   LIG     1     -21.745 -13.801 -14.554  1.00  0.00     0.013 C 
ENDROOT
BRANCH   1   6
HETATM    6  C   LIG     1     -22.688 -17.376 -13.753  1.00  0.00     0.012 C 
BRANCH   6   7
HETATM    7  C   LIG     1     -23.942 -17.917 -14.441  1.00  0.00     0.001 C 
BRANCH   7   8
HETATM    8  C   LIG     1     -23.584 -18.959 -15.506  1.00  0.00     0.006 C 
BRANCH   8   9
HETATM    9  C   LIG     1     -24.379 -20.280 -15.375  1.00  0.00     0.004 C 
HETATM   10  C   LIG     1     -25.156 -20.599 -16.658  1.00  0.00     0.012 C 
BRANCH   9  11
HETATM   11  C   LIG     1     -23.440 -21.433 -14.930  1.00  0.00     0.084 C 
HETATM   12  C   LIG     1     -23.745 -22.758 -15.624  1.00  0.00     0.032 C 
BRANCH  11  13
HETATM   13  N   LIG     1     -22.042 -21.105 -15.091  1.00  0.00    -0.357 N 
HETATM   14  C   LIG     1     -21.060 -21.516 -14.206  1.00  0.00     0.213 C 
HETATM   15  O   LIG     1     -21.237 -22.192 -13.196  1.00  0.00    -0.274 OA
HETATM   16  C   LIG     1     -19.688 -21.058 -14.624  1.00  0.00     0.117 C 
HETATM   17  H   LIG     1     -21.760 -20.612 -15.933  1.00  0.00     0.162 HD
ENDBRANCH  11  13
ENDBRANCH   9  11
ENDBRANCH   8   9
ENDBRANCH   7   8
ENDBRANCH   6   7
ENDBRANCH   1   6
BRANCH   1  18
HETATM   18  C   LIG     1     -22.990 -15.425 -12.220  1.00  0.00     0.179 C 
BRANCH  18  19
HETATM   19  O   LIG     1     -22.477 -16.425 -11.363  1.00  0.00    -0.365 OA
BRANCH  19  20
HETATM   20  C   LIG     1     -21.766 -15.867 -10.262  1.00  0.00     0.142 C 
BRANCH  20  21
HETATM   21  C   LIG     1     -21.678 -14.341 -10.490  1.00  0.00    -0.015 A 
HETATM   22  C   LIG     1     -22.732 -13.516 -10.099  1.00  0.00     0.011 A 
HETATM   23  C   LIG     1     -22.652 -12.138 -10.304  1.00  0.00     0.001 A 
HETATM   24  C   LIG     1     -21.519 -11.587 -10.899  1.00  0.00     0.000 A 
HETATM   25  C   LIG     1     -20.464 -12.412 -11.290  1.00  0.00     0.001 A 
HETATM   26  C   LIG     1     -20.544 -13.789 -11.085  1.00  0.00     0.011 A 
ENDBRANCH  20  21
BRANCH  20  27
HETATM   27  C   LIG     1     -22.588 -16.258  -9.014  1.00  0.00    -0.015 A 
HETATM   28  C   LIG     1     -22.047 -16.083  -7.740  1.00  0.00     0.011 A 
HETATM   29  C   LIG     1     -22.790 -16.437  -6.614  1.00  0.00     0.001 A 
HETATM   30  C   LIG     1     -24.073 -16.963  -6.760  1.00  0.00     0.000 A 
HETATM   31  C   LIG     1     -24.613 -17.136  -8.034  1.00  0.00     0.001 A 
HETATM   32  C   LIG     1     -23.872 -16.784  -9.162  1.00  0.00     0.011 A 
ENDBRANCH  20  27
BRANCH  20  33
HETATM   33  C   LIG     1     -20.384 -16.557 -10.290  1.00  0.00    -0.015 A 
HETATM   34  C   LIG     1     -19.772 -16.942  -9.097  1.00  0.00     0.011 A 
HETATM   35  C   LIG     1     -18.526 -17.565  -9.122  1.00  0.00     0.001 A 
HETATM   36  C   LIG     1     -17.889 -17.804 -10.340  1.00  0.00     0.000 A 
HETATM   37  C   LIG     1     -18.501 -17.420 -11.533  1.00  0.00     0.001 A 
HETATM   38  C   LIG     1     -19.748 -16.796 -11.508  1.00  0.00     0.011 A 
ENDBRANCH  20  33
ENDBRANCH  19  20
ENDBRANCH  18  19
ENDBRANCH   1  18
BRANCH   4  39
HETATM   39  C   LIG     1     -23.532 -13.353 -16.330  1.00  0.00     0.107 A 
HETATM   40  N   LIG     1     -23.654 -12.027 -16.638  1.00  0.00    -0.353 N 
HETATM   41  C   LIG     1     -23.912 -11.940 -17.977  1.00  0.00     0.109 A 
HETATM   42  H   LIG     1     -23.569 -11.250 -15.995  1.00  0.00     0.166 HD
HETATM   43  C   LIG     1     -23.933 -13.242 -18.416  1.00  0.00     0.135 A 
HETATM   44  N   LIG     1     -23.698 -14.118 -17.386  1.00  0.00    -0.246 NA
ENDBRANCH   4  39
TORSDOF 13
ENDMDL
MODEL 8
REMARK VINA RESULT:      -9.5      1.318      3.967
REMARK  13 active torsions:
REMARK  status: ('A' for Active; 'I' for Inactive)
REMARK    1  A    between atoms: O_1  and  C_12 
REMARK    2  A    between atoms: O_1  and  C_17 
REMARK    3  A    between atoms: N_5  and  C_18 
REMARK       I    between atoms: N_5  and  C_32 
REMARK    4  A    between atoms: C_6  and  C_11 
REMARK    5  A    between atoms: C_6  and  C_12 
REMARK    6  A    between atoms: C_9  and  C_14 
REMARK    7  A    between atoms: C_11  and  C_13 
REMARK    8  A    between atoms: C_13  and  C_15 
REMARK    9  A    between atoms: C_15  and  C_16 
REMARK   10  A    between atoms: C_16  and  C_18 
REMARK   11  A    between atoms: C_17  and  C_21 
REMARK   12  A    between atoms: C_17  and  C_22 
REMARK   13  A    between atoms: C_17  and  C_23 
ROOT
HETATM    1  C   LIG     1     -21.882 -16.155 -10.986  1.00  0.00    -0.018 C 
HETATM    2  C   LIG     1     -21.348 -14.803 -10.489  1.00  0.00     0.024 C 
HETATM    3  C   LIG     1     -22.535 -16.725  -9.719  1.00  0.00     0.012 C 
HETATM    4  C   LIG     1     -22.406 -14.291  -9.493  1.00  0.00     0.056 C 
HETATM    5  C   LIG     1     -23.212 -15.527  -9.053  1.00  0.00     0.013 C 
ENDROOT
BRANCH   1   6
HETATM    6  C   LIG     1     -20.752 -17.058 -11.486  1.00  0.00     0.012 C 
BRANCH   6   7
HETATM    7  C   LIG     1     -19.379 -16.504 -11.099  1.00  0.00     0.001 C 
BRANCH   7   8
HETATM    8  C   LIG     1     -18.366 -17.633 -10.884  1.00  0.00     0.006 C 
BRANCH   8   9
HETATM    9  C   LIG     1     -18.344 -18.179  -9.436  1.00  0.00     0.004 C 
HETATM   10  C   LIG     1     -19.209 -17.325  -8.499  1.00  0.00     0.012 C 
BRANCH   9  11
HETATM   11  C   LIG     1     -18.732 -19.682  -9.421  1.00  0.00     0.084 C 
HETATM   12  C   LIG     1     -19.699 -20.040  -8.294  1.00  0.00     0.032 C 
BRANCH  11  13
HETATM   13  N   LIG     1     -19.265 -20.132 -10.685  1.00  0.00    -0.357 N 
HETATM   14  C   LIG     1     -19.048 -21.402 -11.190  1.00  0.00     0.213 C 
HETATM   15  O   LIG     1     -18.394 -22.291 -10.650  1.00  0.00    -0.274 OA
HETATM   16  C   LIG     1     -19.736 -21.616 -12.512  1.00  0.00     0.117 C 
HETATM   17  H   LIG     1     -19.888 -19.509 -11.192  1.00  0.00     0.162 HD
ENDBRANCH  11  13
ENDBRANCH   9  11
ENDBRANCH   8   9
ENDBRANCH   7   8
ENDBRANCH   6   7
ENDBRANCH   1   6
BRANCH   1  18
HETATM   18  C   LIG     1     -22.911 -15.967 -12.112  1.00  0.00     0.179 C 
BRANCH  18  19
HETATM   19  O   LIG     1     -22.559 -14.810 -12.840  1.00  0.00    -0.365 OA
BRANCH  19  20
HETATM   20  C   LIG     1     -22.154 -15.121 -14.170  1.00  0.00     0.142 C 
BRANCH  20  21
HETATM   21  C   LIG     1     -22.819 -14.093 -15.112  1.00  0.00    -0.015 A 
HETATM   22  C   LIG     1     -22.480 -14.066 -16.465  1.00  0.00     0.011 A 
HETATM   23  C   LIG     1     -23.081 -13.138 -17.317  1.00  0.00     0.001 A 
HETATM   24  C   LIG     1     -24.019 -12.238 -16.815  1.00  0.00     0.000 A 
HETATM   25  C   LIG     1     -24.358 -12.265 -15.461  1.00  0.00     0.001 A 
HETATM   26  C   LIG     1     -23.758 -13.192 -14.611  1.00  0.00     0.011 A 
ENDBRANCH  20  21
BRANCH  20  27
HETATM   27  C   LIG     1     -20.612 -15.033 -14.150  1.00  0.00    -0.015 A 
HETATM   28  C   LIG     1     -19.985 -13.888 -13.659  1.00  0.00     0.011 A 
HETATM   29  C   LIG     1     -18.592 -13.809 -13.642  1.00  0.00     0.001 A 
HETATM   30  C   LIG     1     -17.827 -14.874 -14.114  1.00  0.00     0.000 A 
HETATM   31  C   LIG     1     -18.454 -16.020 -14.605  1.00  0.00     0.001 A 
HETATM   32  C   LIG     1     -19.847 -16.099 -14.623  1.00  0.00     0.011 A 
ENDBRANCH  20  27
BRANCH  20  33
HETATM   33  C   LIG     1     -22.652 -16.564 -14.411  1.00  0.00    -0.015 A 
HETATM   34  C   LIG     1     -21.739 -17.616 -14.475  1.00  0.00     0.011 A 
HETATM   35  C   LIG     1     -22.189 -18.918 -14.691  1.00  0.00     0.001 A 
HETATM   36  C   LIG     1     -23.552 -19.169 -14.845  1.00  0.00     0.000 A 
HETATM   37  C   LIG     1     -24.466 -18.116 -14.780  1.00  0.00     0.001 A 
HETATM   38  C   LIG     1     -24.016 -16.814 -14.563  1.00  0.00     0.011 A 
ENDBRANCH  20  33
ENDBRANCH  19  20
ENDBRANCH  18  19
ENDBRANCH   1  18
BRANCH   4  39
HETATM   39  C   LIG     1     -21.799 -13.518  -8.338  1.00  0.00     0.107 A 
HETATM   40  N   LIG     1     -21.481 -12.194  -8.457  1.00  0.00    -0.353 N 
HETATM   41  C   LIG     1     -20.960 -11.789  -7.261  1.00  0.00     0.109 A 
HETATM   42  H   LIG     1     -21.608 -11.617  -9.279  1.00  0.00     0.166 HD
HETATM   43  C   LIG     1     -20.990 -12.910  -6.467  1.00  0.00     0.135 A 
HETATM   44  N   LIG     1     -21.512 -13.984  -7.143  1.00  0.00    -0.246 NA
ENDBRANCH   4  39
TORSDOF 13
ENDMDL
MODEL 9
REMARK VINA RESULT:      -9.3      1.312      2.106
REMARK  13 active torsions:
REMARK  status: ('A' for Active; 'I' for Inactive)
REMARK    1  A    between atoms: O_1  and  C_12 
REMARK    2  A    between atoms: O_1  and  C_17 
REMARK    3  A    between atoms: N_5  and  C_18 
REMARK       I    between atoms: N_5  and  C_32 
REMARK    4  A    between atoms: C_6  and  C_11 
REMARK    5  A    between atoms: C_6  and  C_12 
REMARK    6  A    between atoms: C_9  and  C_14 
REMARK    7  A    between atoms: C_11  and  C_13 
REMARK    8  A    between atoms: C_13  and  C_15 
REMARK    9  A    between atoms: C_15  and  C_16 
REMARK   10  A    between atoms: C_16  and  C_18 
REMARK   11  A    between atoms: C_17  and  C_21 
REMARK   12  A    between atoms: C_17  and  C_22 
REMARK   13  A    between atoms: C_17  and  C_23 
ROOT
HETATM    1  C   LIG     1     -21.892 -16.175 -10.956  1.00  0.00    -0.018 C 
HETATM    2  C   LIG     1     -21.346 -14.808 -10.513  1.00  0.00     0.024 C 
HETATM    3  C   LIG     1     -22.568 -16.678  -9.673  1.00  0.00     0.012 C 
HETATM    4  C   LIG     1     -22.409 -14.238  -9.555  1.00  0.00     0.056 C 
HETATM    5  C   LIG     1     -23.237 -15.443  -9.071  1.00  0.00     0.013 C 
ENDROOT
BRANCH   1   6
HETATM    6  C   LIG     1     -20.768 -17.114 -11.400  1.00  0.00     0.012 C 
BRANCH   6   7
HETATM    7  C   LIG     1     -19.390 -16.503 -11.136  1.00  0.00     0.001 C 
BRANCH   7   8
HETATM    8  C   LIG     1     -18.338 -17.591 -10.899  1.00  0.00     0.006 C 
BRANCH   8   9
HETATM    9  C   LIG     1     -18.320 -18.131  -9.449  1.00  0.00     0.004 C 
HETATM   10  C   LIG     1     -19.169 -17.261  -8.513  1.00  0.00     0.012 C 
BRANCH   9  11
HETATM   11  C   LIG     1     -18.729 -19.628  -9.426  1.00  0.00     0.084 C 
HETATM   12  C   LIG     1     -19.731 -19.959  -8.322  1.00  0.00     0.032 C 
BRANCH  11  13
HETATM   13  N   LIG     1     -19.234 -20.086 -10.699  1.00  0.00    -0.357 N 
HETATM   14  C   LIG     1     -19.039 -21.372 -11.173  1.00  0.00     0.213 C 
HETATM   15  O   LIG     1     -18.430 -22.269 -10.595  1.00  0.00    -0.274 OA
HETATM   16  C   LIG     1     -19.690 -21.591 -12.513  1.00  0.00     0.117 C 
HETATM   17  H   LIG     1     -19.820 -19.455 -11.237  1.00  0.00     0.162 HD
ENDBRANCH  11  13
ENDBRANCH   9  11
ENDBRANCH   8   9
ENDBRANCH   7   8
ENDBRANCH   6   7
ENDBRANCH   1   6
BRANCH   1  18
HETATM   18  C   LIG     1     -22.905 -16.025 -12.102  1.00  0.00     0.179 C 
BRANCH  18  19
HETATM   19  O   LIG     1     -22.563 -14.872 -12.843  1.00  0.00    -0.365 OA
BRANCH  19  20
HETATM   20  C   LIG     1     -22.107 -15.198 -14.152  1.00  0.00     0.142 C 
BRANCH  20  21
HETATM   21  C   LIG     1     -20.565 -15.092 -14.147  1.00  0.00    -0.015 A 
HETATM   22  C   LIG     1     -19.948 -13.929 -13.687  1.00  0.00     0.011 A 
HETATM   23  C   LIG     1     -18.556 -13.834 -13.682  1.00  0.00     0.001 A 
HETATM   24  C   LIG     1     -17.783 -14.901 -14.138  1.00  0.00     0.000 A 
HETATM   25  C   LIG     1     -18.400 -16.064 -14.599  1.00  0.00     0.001 A 
HETATM   26  C   LIG     1     -19.791 -16.159 -14.603  1.00  0.00     0.011 A 
ENDBRANCH  20  21
BRANCH  20  27
HETATM   27  C   LIG     1     -22.626 -16.628 -14.414  1.00  0.00    -0.015 A 
HETATM   28  C   LIG     1     -21.729 -17.695 -14.483  1.00  0.00     0.011 A 
HETATM   29  C   LIG     1     -22.198 -18.987 -14.720  1.00  0.00     0.001 A 
HETATM   30  C   LIG     1     -23.564 -19.213 -14.887  1.00  0.00     0.000 A 
HETATM   31  C   LIG     1     -24.461 -18.147 -14.817  1.00  0.00     0.001 A 
HETATM   32  C   LIG     1     -23.993 -16.855 -14.581  1.00  0.00     0.011 A 
ENDBRANCH  20  27
BRANCH  20  33
HETATM   33  C   LIG     1     -22.775 -14.157 -15.078  1.00  0.00    -0.015 A 
HETATM   34  C   LIG     1     -22.445 -14.113 -16.432  1.00  0.00     0.011 A 
HETATM   35  C   LIG     1     -23.049 -13.173 -17.267  1.00  0.00     0.001 A 
HETATM   36  C   LIG     1     -23.983 -12.277 -16.748  1.00  0.00     0.000 A 
HETATM   37  C   LIG     1     -24.314 -12.321 -15.393  1.00  0.00     0.001 A 
HETATM   38  C   LIG     1     -23.710 -13.261 -14.558  1.00  0.00     0.011 A 
ENDBRANCH  20  33
ENDBRANCH  19  20
ENDBRANCH  18  19
ENDBRANCH   1  18
BRANCH   4  39
HETATM   39  C   LIG     1     -21.807 -13.421  -8.429  1.00  0.00     0.107 A 
HETATM   40  N   LIG     1     -21.533 -13.980  -7.212  1.00  0.00    -0.353 N 
HETATM   41  C   LIG     1     -21.003 -13.000  -6.421  1.00  0.00     0.109 A 
HETATM   42  H   LIG     1     -21.692 -14.942  -6.943  1.00  0.00     0.166 HD
HETATM   43  C   LIG     1     -20.984 -11.879  -7.216  1.00  0.00     0.135 A 
HETATM   44  N   LIG     1     -21.487 -12.147  -8.465  1.00  0.00    -0.246 NA
ENDBRANCH   4  39
TORSDOF 13
ENDMDL
