MODEL 1
REMARK VINA RESULT:      -8.9      0.000      0.000
REMARK  1 active torsions:
REMARK  status: ('A' for Active; 'I' for Inactive)
REMARK    1  A    between atoms: O_1  and  C_10 
ROOT
HETATM    1  O   LIG     1     -19.117 -21.913 -10.660  1.00  0.00    -0.293 OA
HETATM    2  C   LIG     1     -21.413 -15.074 -13.172  1.00  0.00     0.001 C 
HETATM    3  C   LIG     1     -21.448 -13.923 -12.148  1.00  0.00    -0.014 C 
HETATM    4  C   LIG     1     -20.270 -16.061 -12.913  1.00  0.00    -0.004 C 
HETATM    5  C   LIG     1     -20.451 -16.676 -11.490  1.00  0.00     0.002 C 
HETATM    6  C   LIG     1     -19.345 -17.745 -11.141  1.00  0.00    -0.016 C 
HETATM    7  C   LIG     1     -21.699 -14.529 -10.761  1.00  0.00     0.012 C 
HETATM    8  C   LIG     1     -20.633 -15.580 -10.403  1.00  0.00     0.007 C 
HETATM    9  C   LIG     1     -22.626 -13.113 -12.721  1.00  0.00     0.126 C 
HETATM   10  C   LIG     1     -21.486 -14.356 -14.517  1.00  0.00     0.008 C 
HETATM   11  C   LIG     1     -20.243 -17.174 -13.968  1.00  0.00     0.010 C 
HETATM   12  C   LIG     1     -22.396 -13.144 -14.245  1.00  0.00     0.033 C 
HETATM   13  C   LIG     1     -19.218 -18.748 -12.294  1.00  0.00    -0.068 C 
HETATM   14  C   LIG     1     -19.127 -18.171 -13.688  1.00  0.00     0.035 C 
HETATM   15  C   LIG     1     -20.165 -13.054 -12.109  1.00  0.00     0.018 C 
HETATM   16  C   LIG     1     -19.771 -18.483  -9.839  1.00  0.00     0.022 C 
HETATM   17  C   LIG     1     -17.961 -17.092 -10.915  1.00  0.00     0.020 C 
HETATM   18  C   LIG     1     -19.007 -19.774  -9.590  1.00  0.00     0.084 C 
HETATM   19  C   LIG     1     -19.161 -20.080 -12.129  1.00  0.00     0.053 C 
HETATM   20  C   LIG     1     -19.124 -20.689 -10.779  1.00  0.00     0.149 C 
ENDROOT
BRANCH   9  21
HETATM   21  O   LIG     1     -22.680 -11.789 -12.226  1.00  0.00    -0.395 OA
HETATM   22  H   LIG     1     -21.990 -11.677 -11.551  1.00  0.00     0.210 HD
ENDBRANCH   9  21
TORSDOF 1
ENDMDL
