MODEL 1
REMARK VINA RESULT:      -9.0      0.000      0.000
REMARK  1 active torsions:
REMARK  status: ('A' for Active; 'I' for Inactive)
REMARK    1  A    between atoms: C_7  and  C_21 
ROOT
HETATM    1  O   LIG     1     -21.510 -14.144  -6.714  1.00  0.00    -0.291 OA
HETATM    2  C   LIG     1     -23.232 -14.924 -14.118  1.00  0.00     0.000 C 
HETATM    3  C   LIG     1     -23.217 -13.647 -14.986  1.00  0.00     0.006 C 
HETATM    4  C   LIG     1     -22.173 -14.904 -13.011  1.00  0.00     0.001 C 
HETATM    5  C   LIG     1     -22.438 -13.678 -12.081  1.00  0.00     0.004 C 
HETATM    6  C   LIG     1     -21.423 -13.590 -10.878  1.00  0.00     0.016 C 
HETATM    7  C   LIG     1     -24.324 -14.020 -15.997  1.00  0.00     0.058 C 
HETATM    8  C   LIG     1     -23.552 -12.459 -14.074  1.00  0.00     0.000 C 
HETATM    9  C   LIG     1     -22.573 -12.358 -12.890  1.00  0.00     0.000 C 
HETATM   10  C   LIG     1     -23.208 -16.049 -15.146  1.00  0.00     0.000 C 
HETATM   11  C   LIG     1     -22.196 -16.200 -12.190  1.00  0.00     0.004 C 
HETATM   12  C   LIG     1     -24.078 -15.512 -16.298  1.00  0.00     0.007 C 
HETATM   13  C   LIG     1     -21.337 -14.954 -10.180  1.00  0.00    -0.042 C 
HETATM   14  C   LIG     1     -21.868 -13.391 -15.707  1.00  0.00     0.000 C 
HETATM   15  C   LIG     1     -21.165 -16.162 -11.071  1.00  0.00     0.022 C 
HETATM   16  C   LIG     1     -21.940 -12.514  -9.880  1.00  0.00     0.012 C 
HETATM   17  C   LIG     1     -20.004 -13.198 -11.347  1.00  0.00     0.004 C 
HETATM   18  C   LIG     1     -21.278 -12.582  -8.513  1.00  0.00     0.070 C 
HETATM   19  C   LIG     1     -21.382 -15.120  -8.847  1.00  0.00     0.029 C 
HETATM   20  C   LIG     1     -21.427 -13.961  -7.926  1.00  0.00     0.172 C 
ENDROOT
BRANCH   7  21
HETATM   21  C   LIG     1     -24.337 -13.182 -17.238  1.00  0.00     0.151 C 
HETATM   22  O   LIG     1     -24.664 -11.996 -17.212  1.00  0.00    -0.296 OA
HETATM   23  C   LIG     1     -23.930 -13.862 -18.516  1.00  0.00     0.072 C 
ENDBRANCH   7  21
TORSDOF 1
ENDMDL
