MODEL 1
REMARK VINA RESULT:      -8.8      0.000      0.000
REMARK  1 active torsions:
REMARK  status: ('A' for Active; 'I' for Inactive)
REMARK    1  A    between atoms: C_7  and  C_21 
ROOT
HETATM    1  O   LIG     1     -21.533 -14.516  -6.678  1.00  0.00    -0.291 OA
HETATM    2  C   LIG     1     -23.261 -14.974 -14.107  1.00  0.00     0.000 C 
HETATM    3  C   LIG     1     -23.220 -13.665 -14.925  1.00  0.00     0.006 C 
HETATM    4  C   LIG     1     -22.203 -15.019 -13.000  1.00  0.00     0.001 C 
HETATM    5  C   LIG     1     -22.445 -13.825 -12.024  1.00  0.00     0.004 C 
HETATM    6  C   LIG     1     -21.430 -13.804 -10.817  1.00  0.00     0.016 C 
HETATM    7  C   LIG     1     -24.333 -13.977 -15.950  1.00  0.00     0.058 C 
HETATM    8  C   LIG     1     -23.532 -12.507 -13.968  1.00  0.00     0.000 C 
HETATM    9  C   LIG     1     -22.553 -12.472 -12.781  1.00  0.00     0.000 C 
HETATM   10  C   LIG     1     -23.259 -16.060 -15.178  1.00  0.00     0.000 C 
HETATM   11  C   LIG     1     -22.253 -16.345 -12.230  1.00  0.00     0.004 C 
HETATM   12  C   LIG     1     -24.116 -15.461 -16.308  1.00  0.00     0.007 C 
HETATM   13  C   LIG     1     -21.372 -15.195 -10.173  1.00  0.00    -0.042 C 
HETATM   14  C   LIG     1     -21.865 -13.409 -15.635  1.00  0.00     0.000 C 
HETATM   15  C   LIG     1     -21.222 -16.371 -11.109  1.00  0.00     0.022 C 
HETATM   16  C   LIG     1     -21.926 -12.756  -9.778  1.00  0.00     0.012 C 
HETATM   17  C   LIG     1     -20.002 -13.422 -11.270  1.00  0.00     0.004 C 
HETATM   18  C   LIG     1     -21.268 -12.890  -8.415  1.00  0.00     0.070 C 
HETATM   19  C   LIG     1     -21.422 -15.411  -8.847  1.00  0.00     0.029 C 
HETATM   20  C   LIG     1     -21.445 -14.288  -7.882  1.00  0.00     0.172 C 
ENDROOT
BRANCH   7  21
HETATM   21  C   LIG     1     -24.328 -13.092 -17.158  1.00  0.00     0.151 C 
HETATM   22  O   LIG     1     -24.614 -11.898 -17.084  1.00  0.00    -0.296 OA
HETATM   23  C   LIG     1     -23.953 -13.734 -18.465  1.00  0.00     0.072 C 
ENDBRANCH   7  21
TORSDOF 1
ENDMDL
