MODEL 1
REMARK VINA RESULT:     -10.2      0.000      0.000
REMARK  13 active torsions:
REMARK  status: ('A' for Active; 'I' for Inactive)
REMARK    1  A    between atoms: O_1  and  C_12 
REMARK    2  A    between atoms: O_1  and  C_17 
REMARK    3  A    between atoms: N_5  and  C_18 
REMARK       I    between atoms: N_5  and  C_32 
REMARK    4  A    between atoms: C_6  and  C_11 
REMARK    5  A    between atoms: C_6  and  C_12 
REMARK    6  A    between atoms: C_9  and  C_14 
REMARK    7  A    between atoms: C_11  and  C_13 
REMARK    8  A    between atoms: C_13  and  C_15 
REMARK    9  A    between atoms: C_15  and  C_16 
REMARK   10  A    between atoms: C_16  and  C_18 
REMARK   11  A    between atoms: C_17  and  C_21 
REMARK   12  A    between atoms: C_17  and  C_22 
REMARK   13  A    between atoms: C_17  and  C_23 
ROOT
HETATM    1  C   LIG     1     -22.004 -15.182  -9.673  1.00  0.00    -0.018 C 
HETATM    2  C   LIG     1     -20.921 -14.505  -8.818  1.00  0.00     0.024 C 
HETATM    3  C   LIG     1     -23.253 -14.369  -9.303  1.00  0.00     0.012 C 
HETATM    4  C   LIG     1     -21.278 -13.006  -8.823  1.00  0.00     0.056 C 
HETATM    5  C   LIG     1     -22.767 -12.923  -9.204  1.00  0.00     0.013 C 
ENDROOT
BRANCH   1   6
HETATM    6  C   LIG     1     -22.170 -16.658  -9.307  1.00  0.00     0.012 C 
BRANCH   6   7
HETATM    7  C   LIG     1     -21.302 -17.039  -8.106  1.00  0.00     0.001 C 
BRANCH   7   8
HETATM    8  C   LIG     1     -20.811 -18.487  -8.215  1.00  0.00     0.006 C 
BRANCH   8   9
HETATM    9  C   LIG     1     -19.674 -18.680  -9.247  1.00  0.00     0.004 C 
HETATM   10  C   LIG     1     -18.813 -17.417  -9.381  1.00  0.00     0.012 C 
BRANCH   9  11
HETATM   11  C   LIG     1     -18.845 -19.947  -8.905  1.00  0.00     0.084 C 
HETATM   12  C   LIG     1     -18.991 -20.384  -7.449  1.00  0.00     0.032 C 
BRANCH  11  13
HETATM   13  N   LIG     1     -19.139 -21.057  -9.782  1.00  0.00    -0.357 N 
HETATM   14  C   LIG     1     -19.147 -20.950 -11.163  1.00  0.00     0.213 C 
HETATM   15  O   LIG     1     -18.914 -19.931 -11.808  1.00  0.00    -0.274 OA
HETATM   16  C   LIG     1     -19.458 -22.260 -11.834  1.00  0.00     0.117 C 
HETATM   17  H   LIG     1     -19.274 -21.974  -9.367  1.00  0.00     0.162 HD
ENDBRANCH  11  13
ENDBRANCH   9  11
ENDBRANCH   8   9
ENDBRANCH   7   8
ENDBRANCH   6   7
ENDBRANCH   1   6
BRANCH   1  18
HETATM   18  C   LIG     1     -21.683 -15.067 -11.171  1.00  0.00     0.179 C 
BRANCH  18  19
HETATM   19  O   LIG     1     -22.690 -15.749 -11.890  1.00  0.00    -0.365 OA
BRANCH  19  20
HETATM   20  C   LIG     1     -22.398 -15.814 -13.282  1.00  0.00     0.142 C 
BRANCH  20  21
HETATM   21  C   LIG     1     -20.860 -15.832 -13.435  1.00  0.00    -0.015 A 
HETATM   22  C   LIG     1     -20.207 -14.755 -14.033  1.00  0.00     0.011 A 
HETATM   23  C   LIG     1     -18.818 -14.771 -14.170  1.00  0.00     0.001 A 
HETATM   24  C   LIG     1     -18.085 -15.863 -13.710  1.00  0.00     0.000 A 
HETATM   25  C   LIG     1     -18.739 -16.941 -13.111  1.00  0.00     0.001 A 
HETATM   26  C   LIG     1     -20.126 -16.924 -12.974  1.00  0.00     0.011 A 
ENDBRANCH  20  21
BRANCH  20  27
HETATM   27  C   LIG     1     -23.082 -17.108 -13.776  1.00  0.00    -0.015 A 
HETATM   28  C   LIG     1     -22.456 -17.906 -14.734  1.00  0.00     0.011 A 
HETATM   29  C   LIG     1     -23.074 -19.074 -15.179  1.00  0.00     0.001 A 
HETATM   30  C   LIG     1     -24.316 -19.446 -14.666  1.00  0.00     0.000 A 
HETATM   31  C   LIG     1     -24.941 -18.649 -13.707  1.00  0.00     0.001 A 
HETATM   32  C   LIG     1     -24.324 -17.480 -13.261  1.00  0.00     0.011 A 
ENDBRANCH  20  27
BRANCH  20  33
HETATM   33  C   LIG     1     -23.045 -14.547 -13.885  1.00  0.00    -0.015 A 
HETATM   34  C   LIG     1     -23.569 -14.579 -15.177  1.00  0.00     0.011 A 
HETATM   35  C   LIG     1     -24.153 -13.435 -15.721  1.00  0.00     0.001 A 
HETATM   36  C   LIG     1     -24.213 -12.259 -14.973  1.00  0.00     0.000 A 
HETATM   37  C   LIG     1     -23.688 -12.227 -13.681  1.00  0.00     0.001 A 
HETATM   38  C   LIG     1     -23.104 -13.371 -13.137  1.00  0.00     0.011 A 
ENDBRANCH  20  33
ENDBRANCH  19  20
ENDBRANCH  18  19
ENDBRANCH   1  18
BRANCH   4  39
HETATM   39  C   LIG     1     -20.946 -12.320  -7.512  1.00  0.00     0.107 A 
HETATM   40  N   LIG     1     -21.926 -11.804  -6.711  1.00  0.00    -0.353 N 
HETATM   41  C   LIG     1     -21.315 -11.258  -5.617  1.00  0.00     0.109 A 
HETATM   42  H   LIG     1     -22.921 -11.822  -6.892  1.00  0.00     0.166 HD
HETATM   43  C   LIG     1     -19.973 -11.476  -5.818  1.00  0.00     0.135 A 
HETATM   44  N   LIG     1     -19.749 -12.136  -7.001  1.00  0.00    -0.246 NA
ENDBRANCH   4  39
TORSDOF 13
ENDMDL
MODEL 2
REMARK VINA RESULT:     -10.2      0.055      3.500
REMARK  13 active torsions:
REMARK  status: ('A' for Active; 'I' for Inactive)
REMARK    1  A    between atoms: O_1  and  C_12 
REMARK    2  A    between atoms: O_1  and  C_17 
REMARK    3  A    between atoms: N_5  and  C_18 
REMARK       I    between atoms: N_5  and  C_32 
REMARK    4  A    between atoms: C_6  and  C_11 
REMARK    5  A    between atoms: C_6  and  C_12 
REMARK    6  A    between atoms: C_9  and  C_14 
REMARK    7  A    between atoms: C_11  and  C_13 
REMARK    8  A    between atoms: C_13  and  C_15 
REMARK    9  A    between atoms: C_15  and  C_16 
REMARK   10  A    between atoms: C_16  and  C_18 
REMARK   11  A    between atoms: C_17  and  C_21 
REMARK   12  A    between atoms: C_17  and  C_22 
REMARK   13  A    between atoms: C_17  and  C_23 
ROOT
HETATM    1  C   LIG     1     -22.001 -15.196  -9.656  1.00  0.00    -0.018 C 
HETATM    2  C   LIG     1     -20.915 -14.520  -8.804  1.00  0.00     0.024 C 
HETATM    3  C   LIG     1     -23.242 -14.363  -9.308  1.00  0.00     0.012 C 
HETATM    4  C   LIG     1     -21.254 -13.017  -8.834  1.00  0.00     0.056 C 
HETATM    5  C   LIG     1     -22.739 -12.922  -9.227  1.00  0.00     0.013 C 
ENDROOT
BRANCH   1   6
HETATM    6  C   LIG     1     -22.187 -16.665  -9.269  1.00  0.00     0.012 C 
BRANCH   6   7
HETATM    7  C   LIG     1     -21.290 -17.053  -8.092  1.00  0.00     0.001 C 
BRANCH   7   8
HETATM    8  C   LIG     1     -20.816 -18.505  -8.213  1.00  0.00     0.006 C 
BRANCH   8   9
HETATM    9  C   LIG     1     -19.670 -18.701  -9.234  1.00  0.00     0.004 C 
HETATM   10  C   LIG     1     -18.807 -17.438  -9.361  1.00  0.00     0.012 C 
BRANCH   9  11
HETATM   11  C   LIG     1     -18.845 -19.968  -8.883  1.00  0.00     0.084 C 
HETATM   12  C   LIG     1     -19.011 -20.408  -7.430  1.00  0.00     0.032 C 
BRANCH  11  13
HETATM   13  N   LIG     1     -19.126 -21.076  -9.766  1.00  0.00    -0.357 N 
HETATM   14  C   LIG     1     -19.132 -20.962 -11.146  1.00  0.00     0.213 C 
HETATM   15  O   LIG     1     -18.907 -19.938 -11.785  1.00  0.00    -0.274 OA
HETATM   16  C   LIG     1     -19.429 -22.273 -11.824  1.00  0.00     0.117 C 
HETATM   17  H   LIG     1     -19.253 -21.996  -9.355  1.00  0.00     0.162 HD
ENDBRANCH  11  13
ENDBRANCH   9  11
ENDBRANCH   8   9
ENDBRANCH   7   8
ENDBRANCH   6   7
ENDBRANCH   1   6
BRANCH   1  18
HETATM   18  C   LIG     1     -21.668 -15.108 -11.154  1.00  0.00     0.179 C 
BRANCH  18  19
HETATM   19  O   LIG     1     -22.671 -15.800 -11.869  1.00  0.00    -0.365 OA
BRANCH  19  20
HETATM   20  C   LIG     1     -22.417 -15.805 -13.270  1.00  0.00     0.142 C 
BRANCH  20  21
HETATM   21  C   LIG     1     -23.068 -14.536 -13.865  1.00  0.00    -0.015 A 
HETATM   22  C   LIG     1     -23.614 -14.569 -15.148  1.00  0.00     0.011 A 
HETATM   23  C   LIG     1     -24.203 -13.423 -15.685  1.00  0.00     0.001 A 
HETATM   24  C   LIG     1     -24.244 -12.246 -14.940  1.00  0.00     0.000 A 
HETATM   25  C   LIG     1     -23.697 -12.213 -13.656  1.00  0.00     0.001 A 
HETATM   26  C   LIG     1     -23.110 -13.358 -13.120  1.00  0.00     0.011 A 
ENDBRANCH  20  21
BRANCH  20  27
HETATM   27  C   LIG     1     -20.879 -15.828 -13.401  1.00  0.00    -0.015 A 
HETATM   28  C   LIG     1     -20.149 -16.889 -12.864  1.00  0.00     0.011 A 
HETATM   29  C   LIG     1     -18.759 -16.909 -12.982  1.00  0.00     0.001 A 
HETATM   30  C   LIG     1     -18.099 -15.870 -13.637  1.00  0.00     0.000 A 
HETATM   31  C   LIG     1     -18.829 -14.809 -14.174  1.00  0.00     0.001 A 
HETATM   32  C   LIG     1     -20.219 -14.788 -14.056  1.00  0.00     0.011 A 
ENDBRANCH  20  27
BRANCH  20  33
HETATM   33  C   LIG     1     -23.065 -17.108 -13.788  1.00  0.00    -0.015 A 
HETATM   34  C   LIG     1     -22.383 -17.913 -14.700  1.00  0.00     0.011 A 
HETATM   35  C   LIG     1     -22.968 -19.089 -15.166  1.00  0.00     0.001 A 
HETATM   36  C   LIG     1     -24.236 -19.463 -14.721  1.00  0.00     0.000 A 
HETATM   37  C   LIG     1     -24.919 -18.658 -13.808  1.00  0.00     0.001 A 
HETATM   38  C   LIG     1     -24.334 -17.482 -13.342  1.00  0.00     0.011 A 
ENDBRANCH  20  33
ENDBRANCH  19  20
ENDBRANCH  18  19
ENDBRANCH   1  18
BRANCH   4  39
HETATM   39  C   LIG     1     -20.923 -12.316  -7.531  1.00  0.00     0.107 A 
HETATM   40  N   LIG     1     -21.905 -11.823  -6.719  1.00  0.00    -0.353 N 
HETATM   41  C   LIG     1     -21.295 -11.255  -5.636  1.00  0.00     0.109 A 
HETATM   42  H   LIG     1     -22.902 -11.868  -6.886  1.00  0.00     0.166 HD
HETATM   43  C   LIG     1     -19.950 -11.436  -5.855  1.00  0.00     0.135 A 
HETATM   44  N   LIG     1     -19.725 -12.097  -7.037  1.00  0.00    -0.246 NA
ENDBRANCH   4  39
TORSDOF 13
ENDMDL
MODEL 3
REMARK VINA RESULT:     -10.1      3.365      7.197
REMARK  13 active torsions:
REMARK  status: ('A' for Active; 'I' for Inactive)
REMARK    1  A    between atoms: O_1  and  C_12 
REMARK    2  A    between atoms: O_1  and  C_17 
REMARK    3  A    between atoms: N_5  and  C_18 
REMARK       I    between atoms: N_5  and  C_32 
REMARK    4  A    between atoms: C_6  and  C_11 
REMARK    5  A    between atoms: C_6  and  C_12 
REMARK    6  A    between atoms: C_9  and  C_14 
REMARK    7  A    between atoms: C_11  and  C_13 
REMARK    8  A    between atoms: C_13  and  C_15 
REMARK    9  A    between atoms: C_15  and  C_16 
REMARK   10  A    between atoms: C_16  and  C_18 
REMARK   11  A    between atoms: C_17  and  C_21 
REMARK   12  A    between atoms: C_17  and  C_22 
REMARK   13  A    between atoms: C_17  and  C_23 
ROOT
HETATM    1  C   LIG     1     -22.728 -15.800 -13.656  1.00  0.00    -0.018 C 
HETATM    2  C   LIG     1     -23.757 -15.169 -14.607  1.00  0.00     0.024 C 
HETATM    3  C   LIG     1     -21.408 -15.225 -14.189  1.00  0.00     0.012 C 
HETATM    4  C   LIG     1     -23.230 -13.748 -14.887  1.00  0.00     0.056 C 
HETATM    5  C   LIG     1     -21.728 -13.775 -14.550  1.00  0.00     0.013 C 
ENDROOT
BRANCH   1   6
HETATM    6  C   LIG     1     -22.746 -17.328 -13.742  1.00  0.00     0.012 C 
BRANCH   6   7
HETATM    7  C   LIG     1     -22.388 -17.815 -15.147  1.00  0.00     0.001 C 
BRANCH   7   8
HETATM    8  C   LIG     1     -23.402 -18.849 -15.650  1.00  0.00     0.006 C 
BRANCH   8   9
HETATM    9  C   LIG     1     -23.610 -20.037 -14.681  1.00  0.00     0.004 C 
HETATM   10  C   LIG     1     -25.097 -20.374 -14.514  1.00  0.00     0.012 C 
BRANCH   9  11
HETATM   11  C   LIG     1     -22.757 -21.254 -15.129  1.00  0.00     0.084 C 
HETATM   12  C   LIG     1     -21.340 -21.237 -14.558  1.00  0.00     0.032 C 
BRANCH  11  13
HETATM   13  N   LIG     1     -23.391 -22.517 -14.831  1.00  0.00    -0.357 N 
HETATM   14  C   LIG     1     -24.100 -23.248 -15.769  1.00  0.00     0.213 C 
HETATM   15  O   LIG     1     -24.281 -22.933 -16.942  1.00  0.00    -0.274 OA
HETATM   16  C   LIG     1     -24.635 -24.536 -15.202  1.00  0.00     0.117 C 
HETATM   17  H   LIG     1     -23.247 -22.920 -13.911  1.00  0.00     0.162 HD
ENDBRANCH  11  13
ENDBRANCH   9  11
ENDBRANCH   8   9
ENDBRANCH   7   8
ENDBRANCH   6   7
ENDBRANCH   1   6
BRANCH   1  18
HETATM   18  C   LIG     1     -22.978 -15.375 -12.201  1.00  0.00     0.179 C 
BRANCH  18  19
HETATM   19  O   LIG     1     -22.490 -16.394 -11.354  1.00  0.00    -0.365 OA
BRANCH  19  20
HETATM   20  C   LIG     1     -21.786 -15.864 -10.235  1.00  0.00     0.142 C 
BRANCH  20  21
HETATM   21  C   LIG     1     -21.669 -14.337 -10.440  1.00  0.00    -0.015 A 
HETATM   22  C   LIG     1     -22.661 -13.490  -9.947  1.00  0.00     0.011 A 
HETATM   23  C   LIG     1     -22.555 -12.111 -10.131  1.00  0.00     0.001 A 
HETATM   24  C   LIG     1     -21.457 -11.580 -10.808  1.00  0.00     0.000 A 
HETATM   25  C   LIG     1     -20.465 -12.428 -11.302  1.00  0.00     0.001 A 
HETATM   26  C   LIG     1     -20.571 -13.806 -11.117  1.00  0.00     0.011 A 
ENDBRANCH  20  21
BRANCH  20  27
HETATM   27  C   LIG     1     -22.631 -16.259  -9.005  1.00  0.00    -0.015 A 
HETATM   28  C   LIG     1     -23.920 -16.765  -9.178  1.00  0.00     0.011 A 
HETATM   29  C   LIG     1     -24.683 -17.121  -8.066  1.00  0.00     0.001 A 
HETATM   30  C   LIG     1     -24.159 -16.972  -6.782  1.00  0.00     0.000 A 
HETATM   31  C   LIG     1     -22.870 -16.466  -6.610  1.00  0.00     0.001 A 
HETATM   32  C   LIG     1     -22.106 -16.110  -7.721  1.00  0.00     0.011 A 
ENDBRANCH  20  27
BRANCH  20  33
HETATM   33  C   LIG     1     -20.415 -16.577 -10.253  1.00  0.00    -0.015 A 
HETATM   34  C   LIG     1     -19.683 -16.712  -9.074  1.00  0.00     0.011 A 
HETATM   35  C   LIG     1     -18.447 -17.356  -9.090  1.00  0.00     0.001 A 
HETATM   36  C   LIG     1     -17.941 -17.866 -10.286  1.00  0.00     0.000 A 
HETATM   37  C   LIG     1     -18.673 -17.732 -11.466  1.00  0.00     0.001 A 
HETATM   38  C   LIG     1     -19.910 -17.088 -11.450  1.00  0.00     0.011 A 
ENDBRANCH  20  33
ENDBRANCH  19  20
ENDBRANCH  18  19
ENDBRANCH   1  18
BRANCH   4  39
HETATM   39  C   LIG     1     -23.529 -13.280 -16.298  1.00  0.00     0.107 A 
HETATM   40  N   LIG     1     -23.727 -11.957 -16.582  1.00  0.00    -0.353 N 
HETATM   41  C   LIG     1     -23.972 -11.859 -17.923  1.00  0.00     0.109 A 
HETATM   42  H   LIG     1     -23.698 -11.190 -15.923  1.00  0.00     0.166 HD
HETATM   43  C   LIG     1     -23.909 -13.150 -18.388  1.00  0.00     0.135 A 
HETATM   44  N   LIG     1     -23.634 -14.031 -17.371  1.00  0.00    -0.246 NA
ENDBRANCH   4  39
TORSDOF 13
ENDMDL
MODEL 4
REMARK VINA RESULT:     -10.1      3.373      7.044
REMARK  13 active torsions:
REMARK  status: ('A' for Active; 'I' for Inactive)
REMARK    1  A    between atoms: O_1  and  C_12 
REMARK    2  A    between atoms: O_1  and  C_17 
REMARK    3  A    between atoms: N_5  and  C_18 
REMARK       I    between atoms: N_5  and  C_32 
REMARK    4  A    between atoms: C_6  and  C_11 
REMARK    5  A    between atoms: C_6  and  C_12 
REMARK    6  A    between atoms: C_9  and  C_14 
REMARK    7  A    between atoms: C_11  and  C_13 
REMARK    8  A    between atoms: C_13  and  C_15 
REMARK    9  A    between atoms: C_15  and  C_16 
REMARK   10  A    between atoms: C_16  and  C_18 
REMARK   11  A    between atoms: C_17  and  C_21 
REMARK   12  A    between atoms: C_17  and  C_22 
REMARK   13  A    between atoms: C_17  and  C_23 
ROOT
HETATM    1  C   LIG     1     -22.765 -15.762 -13.634  1.00  0.00    -0.018 C 
HETATM    2  C   LIG     1     -23.779 -15.053 -14.545  1.00  0.00     0.024 C 
HETATM    3  C   LIG     1     -21.428 -15.349 -14.266  1.00  0.00     0.012 C 
HETATM    4  C   LIG     1     -23.124 -13.706 -14.909  1.00  0.00     0.056 C 
HETATM    5  C   LIG     1     -21.615 -13.885 -14.660  1.00  0.00     0.013 C 
ENDROOT
BRANCH   1   6
HETATM    6  C   LIG     1     -22.950 -17.281 -13.662  1.00  0.00     0.012 C 
BRANCH   6   7
HETATM    7  C   LIG     1     -22.244 -17.911 -14.864  1.00  0.00     0.001 C 
BRANCH   7   8
HETATM    8  C   LIG     1     -23.156 -18.914 -15.579  1.00  0.00     0.006 C 
BRANCH   8   9
HETATM    9  C   LIG     1     -23.544 -20.131 -14.706  1.00  0.00     0.004 C 
HETATM   10  C   LIG     1     -25.058 -20.382 -14.731  1.00  0.00     0.012 C 
BRANCH   9  11
HETATM   11  C   LIG     1     -22.714 -21.376 -15.118  1.00  0.00     0.084 C 
HETATM   12  C   LIG     1     -21.317 -21.396 -14.502  1.00  0.00     0.032 C 
BRANCH  11  13
HETATM   13  N   LIG     1     -23.394 -22.617 -14.831  1.00  0.00    -0.357 N 
HETATM   14  C   LIG     1     -24.112 -23.325 -15.780  1.00  0.00     0.213 C 
HETATM   15  O   LIG     1     -24.262 -23.005 -16.956  1.00  0.00    -0.274 OA
HETATM   16  C   LIG     1     -24.698 -24.594 -15.222  1.00  0.00     0.117 C 
HETATM   17  H   LIG     1     -23.279 -23.025 -13.908  1.00  0.00     0.162 HD
ENDBRANCH  11  13
ENDBRANCH   9  11
ENDBRANCH   8   9
ENDBRANCH   7   8
ENDBRANCH   6   7
ENDBRANCH   1   6
BRANCH   1  18
HETATM   18  C   LIG     1     -22.877 -15.267 -12.183  1.00  0.00     0.179 C 
BRANCH  18  19
HETATM   19  O   LIG     1     -22.527 -16.334 -11.327  1.00  0.00    -0.365 OA
BRANCH  19  20
HETATM   20  C   LIG     1     -21.813 -15.883 -10.180  1.00  0.00     0.142 C 
BRANCH  20  21
HETATM   21  C   LIG     1     -22.636 -16.280  -8.934  1.00  0.00    -0.015 A 
HETATM   22  C   LIG     1     -23.967 -16.675  -9.074  1.00  0.00     0.011 A 
HETATM   23  C   LIG     1     -24.709 -17.035  -7.948  1.00  0.00     0.001 A 
HETATM   24  C   LIG     1     -24.122 -16.999  -6.685  1.00  0.00     0.000 A 
HETATM   25  C   LIG     1     -22.791 -16.604  -6.545  1.00  0.00     0.001 A 
HETATM   26  C   LIG     1     -22.049 -16.245  -7.669  1.00  0.00     0.011 A 
ENDBRANCH  20  21
BRANCH  20  27
HETATM   27  C   LIG     1     -20.439 -16.582 -10.260  1.00  0.00    -0.015 A 
HETATM   28  C   LIG     1     -19.974 -17.067 -11.483  1.00  0.00     0.011 A 
HETATM   29  C   LIG     1     -18.732 -17.699 -11.555  1.00  0.00     0.001 A 
HETATM   30  C   LIG     1     -17.956 -17.845 -10.406  1.00  0.00     0.000 A 
HETATM   31  C   LIG     1     -18.421 -17.359  -9.184  1.00  0.00     0.001 A 
HETATM   32  C   LIG     1     -19.662 -16.728  -9.111  1.00  0.00     0.011 A 
ENDBRANCH  20  27
BRANCH  20  33
HETATM   33  C   LIG     1     -21.700 -14.352 -10.359  1.00  0.00    -0.015 A 
HETATM   34  C   LIG     1     -22.656 -13.511  -9.791  1.00  0.00     0.011 A 
HETATM   35  C   LIG     1     -22.553 -12.129  -9.952  1.00  0.00     0.001 A 
HETATM   36  C   LIG     1     -21.494 -11.589 -10.681  1.00  0.00     0.000 A 
HETATM   37  C   LIG     1     -20.537 -12.431 -11.249  1.00  0.00     0.001 A 
HETATM   38  C   LIG     1     -20.640 -13.812 -11.088  1.00  0.00     0.011 A 
ENDBRANCH  20  33
ENDBRANCH  19  20
ENDBRANCH  18  19
ENDBRANCH   1  18
BRANCH   4  39
HETATM   39  C   LIG     1     -23.460 -13.252 -16.316  1.00  0.00     0.107 A 
HETATM   40  N   LIG     1     -23.694 -11.937 -16.603  1.00  0.00    -0.353 N 
HETATM   41  C   LIG     1     -23.966 -11.850 -17.939  1.00  0.00     0.109 A 
HETATM   42  H   LIG     1     -23.670 -11.166 -15.948  1.00  0.00     0.166 HD
HETATM   43  C   LIG     1     -23.882 -13.143 -18.399  1.00  0.00     0.135 A 
HETATM   44  N   LIG     1     -23.567 -14.011 -17.384  1.00  0.00    -0.246 NA
ENDBRANCH   4  39
TORSDOF 13
ENDMDL
MODEL 5
REMARK VINA RESULT:     -10.1      0.121      3.476
REMARK  13 active torsions:
REMARK  status: ('A' for Active; 'I' for Inactive)
REMARK    1  A    between atoms: O_1  and  C_12 
REMARK    2  A    between atoms: O_1  and  C_17 
REMARK    3  A    between atoms: N_5  and  C_18 
REMARK       I    between atoms: N_5  and  C_32 
REMARK    4  A    between atoms: C_6  and  C_11 
REMARK    5  A    between atoms: C_6  and  C_12 
REMARK    6  A    between atoms: C_9  and  C_14 
REMARK    7  A    between atoms: C_11  and  C_13 
REMARK    8  A    between atoms: C_13  and  C_15 
REMARK    9  A    between atoms: C_15  and  C_16 
REMARK   10  A    between atoms: C_16  and  C_18 
REMARK   11  A    between atoms: C_17  and  C_21 
REMARK   12  A    between atoms: C_17  and  C_22 
REMARK   13  A    between atoms: C_17  and  C_23 
ROOT
HETATM    1  C   LIG     1     -22.017 -15.223  -9.596  1.00  0.00    -0.018 C 
HETATM    2  C   LIG     1     -20.931 -14.554  -8.739  1.00  0.00     0.024 C 
HETATM    3  C   LIG     1     -23.244 -14.353  -9.289  1.00  0.00     0.012 C 
HETATM    4  C   LIG     1     -21.233 -13.045  -8.807  1.00  0.00     0.056 C 
HETATM    5  C   LIG     1     -22.708 -12.923  -9.230  1.00  0.00     0.013 C 
ENDROOT
BRANCH   1   6
HETATM    6  C   LIG     1     -22.246 -16.678  -9.181  1.00  0.00     0.012 C 
BRANCH   6   7
HETATM    7  C   LIG     1     -21.298 -17.096  -8.056  1.00  0.00     0.001 C 
BRANCH   7   8
HETATM    8  C   LIG     1     -20.830 -18.544  -8.235  1.00  0.00     0.006 C 
BRANCH   8   9
HETATM    9  C   LIG     1     -19.647 -18.697  -9.221  1.00  0.00     0.004 C 
HETATM   10  C   LIG     1     -18.777 -17.433  -9.257  1.00  0.00     0.012 C 
BRANCH   9  11
HETATM   11  C   LIG     1     -18.839 -19.982  -8.898  1.00  0.00     0.084 C 
HETATM   12  C   LIG     1     -18.981 -20.431  -7.446  1.00  0.00     0.032 C 
BRANCH  11  13
HETATM   13  N   LIG     1     -19.160 -21.077  -9.783  1.00  0.00    -0.357 N 
HETATM   14  C   LIG     1     -19.152 -20.963 -11.163  1.00  0.00     0.213 C 
HETATM   15  O   LIG     1     -18.882 -19.949 -11.801  1.00  0.00    -0.274 OA
HETATM   16  C   LIG     1     -19.500 -22.260 -11.845  1.00  0.00     0.117 C 
HETATM   17  H   LIG     1     -19.327 -21.991  -9.374  1.00  0.00     0.162 HD
ENDBRANCH  11  13
ENDBRANCH   9  11
ENDBRANCH   8   9
ENDBRANCH   7   8
ENDBRANCH   6   7
ENDBRANCH   1   6
BRANCH   1  18
HETATM   18  C   LIG     1     -21.655 -15.176 -11.089  1.00  0.00     0.179 C 
BRANCH  18  19
HETATM   19  O   LIG     1     -22.695 -15.800 -11.813  1.00  0.00    -0.365 OA
BRANCH  19  20
HETATM   20  C   LIG     1     -22.421 -15.839 -13.210  1.00  0.00     0.142 C 
BRANCH  20  21
HETATM   21  C   LIG     1     -23.050 -17.134 -13.772  1.00  0.00    -0.015 A 
HETATM   22  C   LIG     1     -22.339 -17.917 -14.681  1.00  0.00     0.011 A 
HETATM   23  C   LIG     1     -22.906 -19.087 -15.188  1.00  0.00     0.001 A 
HETATM   24  C   LIG     1     -24.184 -19.472 -14.785  1.00  0.00     0.000 A 
HETATM   25  C   LIG     1     -24.896 -18.689 -13.876  1.00  0.00     0.001 A 
HETATM   26  C   LIG     1     -24.328 -17.520 -13.370  1.00  0.00     0.011 A 
ENDBRANCH  20  21
BRANCH  20  27
HETATM   27  C   LIG     1     -23.051 -14.550 -13.780  1.00  0.00    -0.015 A 
HETATM   28  C   LIG     1     -23.604 -14.551 -15.061  1.00  0.00     0.011 A 
HETATM   29  C   LIG     1     -24.173 -13.386 -15.575  1.00  0.00     0.001 A 
HETATM   30  C   LIG     1     -24.192 -12.221 -14.809  1.00  0.00     0.000 A 
HETATM   31  C   LIG     1     -23.640 -12.221 -13.528  1.00  0.00     0.001 A 
HETATM   32  C   LIG     1     -23.069 -13.385 -13.013  1.00  0.00     0.011 A 
ENDBRANCH  20  27
BRANCH  20  33
HETATM   33  C   LIG     1     -20.879 -15.829 -13.314  1.00  0.00    -0.015 A 
HETATM   34  C   LIG     1     -20.232 -14.798 -13.994  1.00  0.00     0.011 A 
HETATM   35  C   LIG     1     -18.841 -14.788 -14.087  1.00  0.00     0.001 A 
HETATM   36  C   LIG     1     -18.095 -15.811 -13.500  1.00  0.00     0.000 A 
HETATM   37  C   LIG     1     -18.743 -16.843 -12.819  1.00  0.00     0.001 A 
HETATM   38  C   LIG     1     -20.134 -16.852 -12.726  1.00  0.00     0.011 A 
ENDBRANCH  20  33
ENDBRANCH  19  20
ENDBRANCH  18  19
ENDBRANCH   1  18
BRANCH   4  39
HETATM   39  C   LIG     1     -20.908 -12.322  -7.515  1.00  0.00     0.107 A 
HETATM   40  N   LIG     1     -21.894 -11.814  -6.716  1.00  0.00    -0.353 N 
HETATM   41  C   LIG     1     -21.290 -11.230  -5.639  1.00  0.00     0.109 A 
HETATM   42  H   LIG     1     -22.891 -11.861  -6.888  1.00  0.00     0.166 HD
HETATM   43  C   LIG     1     -19.944 -11.418  -5.847  1.00  0.00     0.135 A 
HETATM   44  N   LIG     1     -19.713 -12.098  -7.017  1.00  0.00    -0.246 NA
ENDBRANCH   4  39
TORSDOF 13
ENDMDL
MODEL 6
REMARK VINA RESULT:     -10.0      3.390      7.200
REMARK  13 active torsions:
REMARK  status: ('A' for Active; 'I' for Inactive)
REMARK    1  A    between atoms: O_1  and  C_12 
REMARK    2  A    between atoms: O_1  and  C_17 
REMARK    3  A    between atoms: N_5  and  C_18 
REMARK       I    between atoms: N_5  and  C_32 
REMARK    4  A    between atoms: C_6  and  C_11 
REMARK    5  A    between atoms: C_6  and  C_12 
REMARK    6  A    between atoms: C_9  and  C_14 
REMARK    7  A    between atoms: C_11  and  C_13 
REMARK    8  A    between atoms: C_13  and  C_15 
REMARK    9  A    between atoms: C_15  and  C_16 
REMARK   10  A    between atoms: C_16  and  C_18 
REMARK   11  A    between atoms: C_17  and  C_21 
REMARK   12  A    between atoms: C_17  and  C_22 
REMARK   13  A    between atoms: C_17  and  C_23 
ROOT
HETATM    1  C   LIG     1     -22.634 -15.875 -13.583  1.00  0.00    -0.018 C 
HETATM    2  C   LIG     1     -23.678 -15.309 -14.558  1.00  0.00     0.024 C 
HETATM    3  C   LIG     1     -21.322 -15.358 -14.187  1.00  0.00     0.012 C 
HETATM    4  C   LIG     1     -23.145 -13.920 -14.960  1.00  0.00     0.056 C 
HETATM    5  C   LIG     1     -21.636 -13.936 -14.654  1.00  0.00     0.013 C 
ENDROOT
BRANCH   1   6
HETATM    6  C   LIG     1     -22.668 -17.405 -13.548  1.00  0.00     0.012 C 
BRANCH   6   7
HETATM    7  C   LIG     1     -22.161 -18.007 -14.860  1.00  0.00     0.001 C 
BRANCH   7   8
HETATM    8  C   LIG     1     -23.228 -18.892 -15.512  1.00  0.00     0.006 C 
BRANCH   8   9
HETATM    9  C   LIG     1     -23.599 -20.138 -14.672  1.00  0.00     0.004 C 
HETATM   10  C   LIG     1     -25.110 -20.405 -14.698  1.00  0.00     0.012 C 
BRANCH   9  11
HETATM   11  C   LIG     1     -22.757 -21.362 -15.122  1.00  0.00     0.084 C 
HETATM   12  C   LIG     1     -21.348 -21.370 -14.533  1.00  0.00     0.032 C 
BRANCH  11  13
HETATM   13  N   LIG     1     -23.411 -22.619 -14.845  1.00  0.00    -0.357 N 
HETATM   14  C   LIG     1     -24.123 -23.328 -15.798  1.00  0.00     0.213 C 
HETATM   15  O   LIG     1     -24.290 -22.996 -16.968  1.00  0.00    -0.274 OA
HETATM   16  C   LIG     1     -24.682 -24.615 -15.251  1.00  0.00     0.117 C 
HETATM   17  H   LIG     1     -23.281 -23.036 -13.928  1.00  0.00     0.162 HD
ENDBRANCH  11  13
ENDBRANCH   9  11
ENDBRANCH   8   9
ENDBRANCH   7   8
ENDBRANCH   6   7
ENDBRANCH   1   6
BRANCH   1  18
HETATM   18  C   LIG     1     -22.849 -15.334 -12.160  1.00  0.00     0.179 C 
BRANCH  18  19
HETATM   19  O   LIG     1     -22.558 -16.371 -11.247  1.00  0.00    -0.365 OA
BRANCH  19  20
HETATM   20  C   LIG     1     -21.806 -15.902 -10.132  1.00  0.00     0.142 C 
BRANCH  20  21
HETATM   21  C   LIG     1     -20.428 -16.600 -10.174  1.00  0.00    -0.015 A 
HETATM   22  C   LIG     1     -19.679 -16.735  -9.005  1.00  0.00     0.011 A 
HETATM   23  C   LIG     1     -18.434 -17.365  -9.043  1.00  0.00     0.001 A 
HETATM   24  C   LIG     1     -17.940 -17.860 -10.249  1.00  0.00     0.000 A 
HETATM   25  C   LIG     1     -18.689 -17.725 -11.419  1.00  0.00     0.001 A 
HETATM   26  C   LIG     1     -19.932 -17.095 -11.380  1.00  0.00     0.011 A 
ENDBRANCH  20  21
BRANCH  20  27
HETATM   27  C   LIG     1     -21.728 -14.371 -10.316  1.00  0.00    -0.015 A 
HETATM   28  C   LIG     1     -20.659 -13.806 -11.013  1.00  0.00     0.011 A 
HETATM   29  C   LIG     1     -20.589 -12.422 -11.179  1.00  0.00     0.001 A 
HETATM   30  C   LIG     1     -21.587 -11.605 -10.650  1.00  0.00     0.000 A 
HETATM   31  C   LIG     1     -22.655 -12.170  -9.954  1.00  0.00     0.001 A 
HETATM   32  C   LIG     1     -22.726 -13.553  -9.787  1.00  0.00     0.011 A 
ENDBRANCH  20  27
BRANCH  20  33
HETATM   33  C   LIG     1     -22.640 -16.299  -8.894  1.00  0.00    -0.015 A 
HETATM   34  C   LIG     1     -22.065 -16.259  -7.624  1.00  0.00     0.011 A 
HETATM   35  C   LIG     1     -22.818 -16.617  -6.506  1.00  0.00     0.001 A 
HETATM   36  C   LIG     1     -24.147 -17.014  -6.657  1.00  0.00     0.000 A 
HETATM   37  C   LIG     1     -24.722 -17.053  -7.928  1.00  0.00     0.001 A 
HETATM   38  C   LIG     1     -23.969 -16.695  -9.046  1.00  0.00     0.011 A 
ENDBRANCH  20  33
ENDBRANCH  19  20
ENDBRANCH  18  19
ENDBRANCH   1  18
BRANCH   4  39
HETATM   39  C   LIG     1     -23.470 -13.561 -16.397  1.00  0.00     0.107 A 
HETATM   40  N   LIG     1     -23.355 -14.478 -17.404  1.00  0.00    -0.353 N 
HETATM   41  C   LIG     1     -23.714 -13.857 -18.567  1.00  0.00     0.109 A 
HETATM   42  H   LIG     1     -23.057 -15.440 -17.309  1.00  0.00     0.166 HD
HETATM   43  C   LIG     1     -24.034 -12.573 -18.196  1.00  0.00     0.135 A 
HETATM   44  N   LIG     1     -23.880 -12.394 -16.844  1.00  0.00    -0.246 NA
ENDBRANCH   4  39
TORSDOF 13
ENDMDL
MODEL 7
REMARK VINA RESULT:      -9.9      3.169      7.099
REMARK  13 active torsions:
REMARK  status: ('A' for Active; 'I' for Inactive)
REMARK    1  A    between atoms: O_1  and  C_12 
REMARK    2  A    between atoms: O_1  and  C_17 
REMARK    3  A    between atoms: N_5  and  C_18 
REMARK       I    between atoms: N_5  and  C_32 
REMARK    4  A    between atoms: C_6  and  C_11 
REMARK    5  A    between atoms: C_6  and  C_12 
REMARK    6  A    between atoms: C_9  and  C_14 
REMARK    7  A    between atoms: C_11  and  C_13 
REMARK    8  A    between atoms: C_13  and  C_15 
REMARK    9  A    between atoms: C_15  and  C_16 
REMARK   10  A    between atoms: C_16  and  C_18 
REMARK   11  A    between atoms: C_17  and  C_21 
REMARK   12  A    between atoms: C_17  and  C_22 
REMARK   13  A    between atoms: C_17  and  C_23 
ROOT
HETATM    1  C   LIG     1     -22.580 -15.783 -13.718  1.00  0.00    -0.018 C 
HETATM    2  C   LIG     1     -23.631 -15.219 -14.685  1.00  0.00     0.024 C 
HETATM    3  C   LIG     1     -21.291 -15.125 -14.229  1.00  0.00     0.012 C 
HETATM    4  C   LIG     1     -23.193 -13.767 -14.959  1.00  0.00     0.056 C 
HETATM    5  C   LIG     1     -21.697 -13.698 -14.596  1.00  0.00     0.013 C 
ENDROOT
BRANCH   1   6
HETATM    6  C   LIG     1     -22.499 -17.309 -13.802  1.00  0.00     0.012 C 
BRANCH   6   7
HETATM    7  C   LIG     1     -23.741 -17.900 -14.472  1.00  0.00     0.001 C 
BRANCH   7   8
HETATM    8  C   LIG     1     -23.365 -19.032 -15.434  1.00  0.00     0.006 C 
BRANCH   8   9
HETATM    9  C   LIG     1     -24.220 -20.309 -15.253  1.00  0.00     0.004 C 
HETATM   10  C   LIG     1     -25.093 -20.582 -16.485  1.00  0.00     0.012 C 
BRANCH   9  11
HETATM   11  C   LIG     1     -23.317 -21.512 -14.869  1.00  0.00     0.084 C 
HETATM   12  C   LIG     1     -23.726 -22.813 -15.557  1.00  0.00     0.032 C 
BRANCH  11  13
HETATM   13  N   LIG     1     -21.916 -21.253 -15.105  1.00  0.00    -0.357 N 
HETATM   14  C   LIG     1     -20.928 -21.522 -14.172  1.00  0.00     0.213 C 
HETATM   15  O   LIG     1     -21.104 -22.001 -13.055  1.00  0.00    -0.274 OA
HETATM   16  C   LIG     1     -19.554 -21.180 -14.682  1.00  0.00     0.117 C 
HETATM   17  H   LIG     1     -21.637 -20.926 -16.025  1.00  0.00     0.162 HD
ENDBRANCH  11  13
ENDBRANCH   9  11
ENDBRANCH   8   9
ENDBRANCH   7   8
ENDBRANCH   6   7
ENDBRANCH   1   6
BRANCH   1  18
HETATM   18  C   LIG     1     -22.881 -15.375 -12.267  1.00  0.00     0.179 C 
BRANCH  18  19
HETATM   19  O   LIG     1     -22.413 -16.399 -11.415  1.00  0.00    -0.365 OA
BRANCH  19  20
HETATM   20  C   LIG     1     -21.757 -15.876 -10.265  1.00  0.00     0.142 C 
BRANCH  20  21
HETATM   21  C   LIG     1     -21.632 -14.348 -10.455  1.00  0.00    -0.015 A 
HETATM   22  C   LIG     1     -22.616 -13.499  -9.948  1.00  0.00     0.011 A 
HETATM   23  C   LIG     1     -22.503 -12.119 -10.119  1.00  0.00     0.001 A 
HETATM   24  C   LIG     1     -21.407 -11.588 -10.798  1.00  0.00     0.000 A 
HETATM   25  C   LIG     1     -20.422 -12.437 -11.306  1.00  0.00     0.001 A 
HETATM   26  C   LIG     1     -20.536 -13.816 -11.134  1.00  0.00     0.011 A 
ENDBRANCH  20  21
BRANCH  20  27
HETATM   27  C   LIG     1     -22.654 -16.277  -9.073  1.00  0.00    -0.015 A 
HETATM   28  C   LIG     1     -23.950 -16.739  -9.301  1.00  0.00     0.011 A 
HETATM   29  C   LIG     1     -24.760 -17.101  -8.224  1.00  0.00     0.001 A 
HETATM   30  C   LIG     1     -24.273 -17.004  -6.921  1.00  0.00     0.000 A 
HETATM   31  C   LIG     1     -22.976 -16.544  -6.694  1.00  0.00     0.001 A 
HETATM   32  C   LIG     1     -22.166 -16.180  -7.770  1.00  0.00     0.011 A 
ENDBRANCH  20  27
BRANCH  20  33
HETATM   33  C   LIG     1     -20.386 -16.588 -10.229  1.00  0.00    -0.015 A 
HETATM   34  C   LIG     1     -19.671 -16.665  -9.034  1.00  0.00     0.011 A 
HETATM   35  C   LIG     1     -18.434 -17.308  -9.002  1.00  0.00     0.001 A 
HETATM   36  C   LIG     1     -17.912 -17.876 -10.164  1.00  0.00     0.000 A 
HETATM   37  C   LIG     1     -18.628 -17.800 -11.359  1.00  0.00     0.001 A 
HETATM   38  C   LIG     1     -19.865 -17.156 -11.392  1.00  0.00     0.011 A 
ENDBRANCH  20  33
ENDBRANCH  19  20
ENDBRANCH  18  19
ENDBRANCH   1  18
BRANCH   4  39
HETATM   39  C   LIG     1     -23.497 -13.319 -16.374  1.00  0.00     0.107 A 
HETATM   40  N   LIG     1     -23.650 -11.996 -16.685  1.00  0.00    -0.353 N 
HETATM   41  C   LIG     1     -23.914 -11.918 -18.023  1.00  0.00     0.109 A 
HETATM   42  H   LIG     1     -23.580 -11.217 -16.044  1.00  0.00     0.166 HD
HETATM   43  C   LIG     1     -23.908 -13.221 -18.460  1.00  0.00     0.135 A 
HETATM   44  N   LIG     1     -23.649 -14.089 -17.429  1.00  0.00    -0.246 NA
ENDBRANCH   4  39
TORSDOF 13
ENDMDL
MODEL 8
REMARK VINA RESULT:      -9.7      3.382      7.169
REMARK  13 active torsions:
REMARK  status: ('A' for Active; 'I' for Inactive)
REMARK    1  A    between atoms: O_1  and  C_12 
REMARK    2  A    between atoms: O_1  and  C_17 
REMARK    3  A    between atoms: N_5  and  C_18 
REMARK       I    between atoms: N_5  and  C_32 
REMARK    4  A    between atoms: C_6  and  C_11 
REMARK    5  A    between atoms: C_6  and  C_12 
REMARK    6  A    between atoms: C_9  and  C_14 
REMARK    7  A    between atoms: C_11  and  C_13 
REMARK    8  A    between atoms: C_13  and  C_15 
REMARK    9  A    between atoms: C_15  and  C_16 
REMARK   10  A    between atoms: C_16  and  C_18 
REMARK   11  A    between atoms: C_17  and  C_21 
REMARK   12  A    between atoms: C_17  and  C_22 
REMARK   13  A    between atoms: C_17  and  C_23 
ROOT
HETATM    1  C   LIG     1     -22.698 -15.635 -13.926  1.00  0.00    -0.018 C 
HETATM    2  C   LIG     1     -23.694 -14.693 -14.621  1.00  0.00     0.024 C 
HETATM    3  C   LIG     1     -21.459 -15.504 -14.823  1.00  0.00     0.012 C 
HETATM    4  C   LIG     1     -22.846 -13.512 -15.130  1.00  0.00     0.056 C 
HETATM    5  C   LIG     1     -21.395 -14.023 -15.192  1.00  0.00     0.013 C 
ENDROOT
BRANCH   1   6
HETATM    6  C   LIG     1     -23.214 -17.075 -13.893  1.00  0.00     0.012 C 
BRANCH   6   7
HETATM    7  C   LIG     1     -22.425 -17.976 -14.845  1.00  0.00     0.001 C 
BRANCH   7   8
HETATM    8  C   LIG     1     -23.345 -18.976 -15.552  1.00  0.00     0.006 C 
BRANCH   8   9
HETATM    9  C   LIG     1     -23.682 -20.221 -14.696  1.00  0.00     0.004 C 
HETATM   10  C   LIG     1     -25.183 -20.535 -14.725  1.00  0.00     0.012 C 
BRANCH   9  11
HETATM   11  C   LIG     1     -22.800 -21.425 -15.126  1.00  0.00     0.084 C 
HETATM   12  C   LIG     1     -21.411 -21.407 -14.493  1.00  0.00     0.032 C 
BRANCH  11  13
HETATM   13  N   LIG     1     -23.437 -22.697 -14.876  1.00  0.00    -0.357 N 
HETATM   14  C   LIG     1     -24.151 -23.389 -15.840  1.00  0.00     0.213 C 
HETATM   15  O   LIG     1     -24.336 -23.027 -16.999  1.00  0.00    -0.274 OA
HETATM   16  C   LIG     1     -24.688 -24.696 -15.322  1.00  0.00     0.117 C 
HETATM   17  H   LIG     1     -23.291 -23.137 -13.973  1.00  0.00     0.162 HD
ENDBRANCH  11  13
ENDBRANCH   9  11
ENDBRANCH   8   9
ENDBRANCH   7   8
ENDBRANCH   6   7
ENDBRANCH   1   6
BRANCH   1  18
HETATM   18  C   LIG     1     -22.402 -15.173 -12.490  1.00  0.00     0.179 C 
BRANCH  18  19
HETATM   19  O   LIG     1     -22.072 -16.311 -11.721  1.00  0.00    -0.365 OA
BRANCH  19  20
HETATM   20  C   LIG     1     -20.862 -16.127 -10.994  1.00  0.00     0.142 C 
BRANCH  20  21
HETATM   21  C   LIG     1     -20.077 -14.984 -11.675  1.00  0.00    -0.015 A 
HETATM   22  C   LIG     1     -20.502 -13.663 -11.529  1.00  0.00     0.011 A 
HETATM   23  C   LIG     1     -19.794 -12.631 -12.144  1.00  0.00     0.001 A 
HETATM   24  C   LIG     1     -18.661 -12.919 -12.905  1.00  0.00     0.000 A 
HETATM   25  C   LIG     1     -18.236 -14.240 -13.051  1.00  0.00     0.001 A 
HETATM   26  C   LIG     1     -18.945 -15.271 -12.436  1.00  0.00     0.011 A 
ENDBRANCH  20  21
BRANCH  20  27
HETATM   27  C   LIG     1     -21.306 -15.797  -9.552  1.00  0.00    -0.015 A 
HETATM   28  C   LIG     1     -22.599 -16.108  -9.132  1.00  0.00     0.011 A 
HETATM   29  C   LIG     1     -23.000 -15.808  -7.830  1.00  0.00     0.001 A 
HETATM   30  C   LIG     1     -22.108 -15.200  -6.947  1.00  0.00     0.000 A 
HETATM   31  C   LIG     1     -20.814 -14.891  -7.367  1.00  0.00     0.001 A 
HETATM   32  C   LIG     1     -20.413 -15.189  -8.670  1.00  0.00     0.011 A 
ENDBRANCH  20  27
BRANCH  20  33
HETATM   33  C   LIG     1     -20.134 -17.488 -11.082  1.00  0.00    -0.015 A 
HETATM   34  C   LIG     1     -19.765 -18.158  -9.916  1.00  0.00     0.011 A 
HETATM   35  C   LIG     1     -19.109 -19.386  -9.996  1.00  0.00     0.001 A 
HETATM   36  C   LIG     1     -18.821 -19.944 -11.241  1.00  0.00     0.000 A 
HETATM   37  C   LIG     1     -19.190 -19.273 -12.408  1.00  0.00     0.001 A 
HETATM   38  C   LIG     1     -19.846 -18.045 -12.328  1.00  0.00     0.011 A 
ENDBRANCH  20  33
ENDBRANCH  19  20
ENDBRANCH  18  19
ENDBRANCH   1  18
BRANCH   4  39
HETATM   39  C   LIG     1     -23.351 -12.952 -16.446  1.00  0.00     0.107 A 
HETATM   40  N   LIG     1     -23.851 -11.683 -16.534  1.00  0.00    -0.353 N 
HETATM   41  C   LIG     1     -24.219 -11.477 -17.833  1.00  0.00     0.109 A 
HETATM   42  H   LIG     1     -23.934 -11.016 -15.778  1.00  0.00     0.166 HD
HETATM   43  C   LIG     1     -23.917 -12.654 -18.475  1.00  0.00     0.135 A 
HETATM   44  N   LIG     1     -23.379 -13.569 -17.606  1.00  0.00    -0.246 NA
ENDBRANCH   4  39
TORSDOF 13
ENDMDL
MODEL 9
REMARK VINA RESULT:      -9.7      3.116      8.566
REMARK  13 active torsions:
REMARK  status: ('A' for Active; 'I' for Inactive)
REMARK    1  A    between atoms: O_1  and  C_12 
REMARK    2  A    between atoms: O_1  and  C_17 
REMARK    3  A    between atoms: N_5  and  C_18 
REMARK       I    between atoms: N_5  and  C_32 
REMARK    4  A    between atoms: C_6  and  C_11 
REMARK    5  A    between atoms: C_6  and  C_12 
REMARK    6  A    between atoms: C_9  and  C_14 
REMARK    7  A    between atoms: C_11  and  C_13 
REMARK    8  A    between atoms: C_13  and  C_15 
REMARK    9  A    between atoms: C_15  and  C_16 
REMARK   10  A    between atoms: C_16  and  C_18 
REMARK   11  A    between atoms: C_17  and  C_21 
REMARK   12  A    between atoms: C_17  and  C_22 
REMARK   13  A    between atoms: C_17  and  C_23 
ROOT
HETATM    1  C   LIG     1     -23.672 -17.361 -14.457  1.00  0.00    -0.018 C 
HETATM    2  C   LIG     1     -23.186 -18.595 -15.234  1.00  0.00     0.024 C 
HETATM    3  C   LIG     1     -25.099 -17.773 -14.068  1.00  0.00     0.012 C 
HETATM    4  C   LIG     1     -23.803 -19.803 -14.502  1.00  0.00     0.056 C 
HETATM    5  C   LIG     1     -24.995 -19.252 -13.698  1.00  0.00     0.013 C 
ENDROOT
BRANCH   1   6
HETATM    6  C   LIG     1     -23.672 -16.108 -15.335  1.00  0.00     0.012 C 
BRANCH   6   7
HETATM    7  C   LIG     1     -25.083 -15.756 -15.810  1.00  0.00     0.001 C 
BRANCH   7   8
HETATM    8  C   LIG     1     -25.118 -14.368 -16.459  1.00  0.00     0.006 C 
BRANCH   8   9
HETATM    9  C   LIG     1     -23.766 -13.935 -17.073  1.00  0.00     0.004 C 
HETATM   10  C   LIG     1     -23.756 -14.114 -18.597  1.00  0.00     0.012 C 
BRANCH   9  11
HETATM   11  C   LIG     1     -23.409 -12.492 -16.628  1.00  0.00     0.084 C 
HETATM   12  C   LIG     1     -24.020 -11.419 -17.526  1.00  0.00     0.032 C 
BRANCH  11  13
HETATM   13  N   LIG     1     -23.755 -12.234 -15.250  1.00  0.00    -0.357 N 
HETATM   14  C   LIG     1     -22.981 -12.657 -14.182  1.00  0.00     0.213 C 
HETATM   15  O   LIG     1     -21.930 -13.289 -14.259  1.00  0.00    -0.274 OA
HETATM   16  C   LIG     1     -23.557 -12.234 -12.857  1.00  0.00     0.117 C 
HETATM   17  H   LIG     1     -24.566 -11.652 -15.059  1.00  0.00     0.162 HD
ENDBRANCH  11  13
ENDBRANCH   9  11
ENDBRANCH   8   9
ENDBRANCH   7   8
ENDBRANCH   6   7
ENDBRANCH   1   6
BRANCH   1  18
HETATM   18  C   LIG     1     -22.803 -17.107 -13.215  1.00  0.00     0.179 C 
BRANCH  18  19
HETATM   19  O   LIG     1     -21.557 -16.600 -13.647  1.00  0.00    -0.365 OA
BRANCH  19  20
HETATM   20  C   LIG     1     -20.559 -16.712 -12.637  1.00  0.00     0.142 C 
BRANCH  20  21
HETATM   21  C   LIG     1     -20.094 -18.185 -12.604  1.00  0.00    -0.015 A 
HETATM   22  C   LIG     1     -19.489 -18.699 -11.456  1.00  0.00     0.011 A 
HETATM   23  C   LIG     1     -19.070 -20.030 -11.426  1.00  0.00     0.001 A 
HETATM   24  C   LIG     1     -19.254 -20.844 -12.542  1.00  0.00     0.000 A 
HETATM   25  C   LIG     1     -19.859 -20.330 -13.690  1.00  0.00     0.001 A 
HETATM   26  C   LIG     1     -20.278 -19.001 -13.720  1.00  0.00     0.011 A 
ENDBRANCH  20  21
BRANCH  20  27
HETATM   27  C   LIG     1     -19.450 -15.724 -13.058  1.00  0.00    -0.015 A 
HETATM   28  C   LIG     1     -18.457 -16.129 -13.951  1.00  0.00     0.011 A 
HETATM   29  C   LIG     1     -17.455 -15.236 -14.331  1.00  0.00     0.001 A 
HETATM   30  C   LIG     1     -17.445 -13.939 -13.819  1.00  0.00     0.000 A 
HETATM   31  C   LIG     1     -18.438 -13.534 -12.927  1.00  0.00     0.001 A 
HETATM   32  C   LIG     1     -19.440 -14.426 -12.546  1.00  0.00     0.011 A 
ENDBRANCH  20  27
BRANCH  20  33
HETATM   33  C   LIG     1     -21.263 -16.277 -11.332  1.00  0.00    -0.015 A 
HETATM   34  C   LIG     1     -22.279 -15.322 -11.372  1.00  0.00     0.011 A 
HETATM   35  C   LIG     1     -22.914 -14.930 -10.194  1.00  0.00     0.001 A 
HETATM   36  C   LIG     1     -22.533 -15.492  -8.975  1.00  0.00     0.000 A 
HETATM   37  C   LIG     1     -21.517 -16.447  -8.936  1.00  0.00     0.001 A 
HETATM   38  C   LIG     1     -20.881 -16.839 -10.113  1.00  0.00     0.011 A 
ENDBRANCH  20  33
ENDBRANCH  19  20
ENDBRANCH  18  19
ENDBRANCH   1  18
BRANCH   4  39
HETATM   39  C   LIG     1     -24.174 -20.932 -15.444  1.00  0.00     0.107 A 
HETATM   40  N   LIG     1     -24.914 -20.706 -16.570  1.00  0.00    -0.353 N 
HETATM   41  C   LIG     1     -25.079 -21.906 -17.201  1.00  0.00     0.109 A 
HETATM   42  H   LIG     1     -25.276 -19.813 -16.882  1.00  0.00     0.166 HD
HETATM   43  C   LIG     1     -24.418 -22.813 -16.408  1.00  0.00     0.135 A 
HETATM   44  N   LIG     1     -23.857 -22.201 -15.315  1.00  0.00    -0.246 NA
ENDBRANCH   4  39
TORSDOF 13
ENDMDL
