MODEL 1
REMARK VINA RESULT:      -9.1      0.000      0.000
REMARK  1 active torsions:
REMARK  status: ('A' for Active; 'I' for Inactive)
REMARK    1  A    between atoms: O_1  and  C_10 
ROOT
HETATM    1  O   LIG     1     -19.132 -21.863 -10.542  1.00  0.00    -0.293 OA
HETATM    2  C   LIG     1     -21.415 -15.066 -13.181  1.00  0.00     0.001 C 
HETATM    3  C   LIG     1     -21.442 -13.896 -12.180  1.00  0.00    -0.014 C 
HETATM    4  C   LIG     1     -20.275 -16.053 -12.906  1.00  0.00    -0.004 C 
HETATM    5  C   LIG     1     -20.452 -16.638 -11.470  1.00  0.00     0.002 C 
HETATM    6  C   LIG     1     -19.348 -17.704 -11.104  1.00  0.00    -0.016 C 
HETATM    7  C   LIG     1     -21.689 -14.473 -10.780  1.00  0.00     0.012 C 
HETATM    8  C   LIG     1     -20.626 -15.520 -10.405  1.00  0.00     0.007 C 
HETATM    9  C   LIG     1     -22.620 -13.093 -12.763  1.00  0.00     0.126 C 
HETATM   10  C   LIG     1     -21.492 -14.376 -14.539  1.00  0.00     0.008 C 
HETATM   11  C   LIG     1     -20.256 -17.187 -13.939  1.00  0.00     0.010 C 
HETATM   12  C   LIG     1     -22.395 -13.155 -14.288  1.00  0.00     0.033 C 
HETATM   13  C   LIG     1     -19.229 -18.731 -12.238  1.00  0.00    -0.068 C 
HETATM   14  C   LIG     1     -19.142 -18.182 -13.643  1.00  0.00     0.035 C 
HETATM   15  C   LIG     1     -20.156 -13.030 -12.163  1.00  0.00     0.018 C 
HETATM   16  C   LIG     1     -19.772 -18.414  -9.786  1.00  0.00     0.022 C 
HETATM   17  C   LIG     1     -17.961 -17.052 -10.898  1.00  0.00     0.020 C 
HETATM   18  C   LIG     1     -19.011 -19.702  -9.515  1.00  0.00     0.084 C 
HETATM   19  C   LIG     1     -19.177 -20.059 -12.047  1.00  0.00     0.053 C 
HETATM   20  C   LIG     1     -19.136 -20.641 -10.685  1.00  0.00     0.149 C 
ENDROOT
BRANCH   9  21
HETATM   21  O   LIG     1     -22.666 -11.759 -12.295  1.00  0.00    -0.395 OA
HETATM   22  H   LIG     1     -23.595 -11.495 -12.189  1.00  0.00     0.210 HD
ENDBRANCH   9  21
TORSDOF 1
ENDMDL
