MODEL 1
REMARK VINA RESULT:      -9.4      0.000      0.000
REMARK  1 active torsions:
REMARK  status: ('A' for Active; 'I' for Inactive)
REMARK    1  A    between atoms: C_7  and  C_21 
ROOT
HETATM    1  O   LIG     1     -22.894 -13.142 -17.242  1.00  0.00    -0.291 OA
HETATM    2  C   LIG     1     -21.868 -14.505  -9.793  1.00  0.00     0.000 C 
HETATM    3  C   LIG     1     -22.320 -15.881  -9.257  1.00  0.00     0.006 C 
HETATM    4  C   LIG     1     -21.331 -14.571 -11.227  1.00  0.00     0.001 C 
HETATM    5  C   LIG     1     -22.456 -15.115 -12.162  1.00  0.00     0.004 C 
HETATM    6  C   LIG     1     -22.017 -15.182 -13.675  1.00  0.00     0.016 C 
HETATM    7  C   LIG     1     -22.729 -15.468  -7.826  1.00  0.00     0.058 C 
HETATM    8  C   LIG     1     -23.475 -16.370 -10.141  1.00  0.00     0.000 C 
HETATM    9  C   LIG     1     -23.066 -16.439 -11.623  1.00  0.00     0.000 C 
HETATM   10  C   LIG     1     -20.963 -13.975  -8.687  1.00  0.00     0.000 C 
HETATM   11  C   LIG     1     -20.864 -13.193 -11.714  1.00  0.00     0.004 C 
HETATM   12  C   LIG     1     -21.641 -14.464  -7.393  1.00  0.00     0.007 C 
HETATM   13  C   LIG     1     -21.392 -13.842 -14.087  1.00  0.00    -0.042 C 
HETATM   14  C   LIG     1     -21.192 -16.946  -9.230  1.00  0.00     0.000 C 
HETATM   15  C   LIG     1     -20.361 -13.258 -13.150  1.00  0.00     0.022 C 
HETATM   16  C   LIG     1     -23.279 -15.469 -14.539  1.00  0.00     0.012 C 
HETATM   17  C   LIG     1     -20.975 -16.296 -13.925  1.00  0.00     0.004 C 
HETATM   18  C   LIG     1     -23.080 -15.193 -16.021  1.00  0.00     0.070 C 
HETATM   19  C   LIG     1     -21.694 -13.191 -15.224  1.00  0.00     0.029 C 
HETATM   20  C   LIG     1     -22.604 -13.780 -16.232  1.00  0.00     0.172 C 
ENDROOT
BRANCH   7  21
HETATM   21  C   LIG     1     -22.864 -16.611  -6.867  1.00  0.00     0.151 C 
HETATM   22  O   LIG     1     -21.936 -16.950  -6.134  1.00  0.00    -0.296 OA
HETATM   23  C   LIG     1     -24.189 -17.322  -6.845  1.00  0.00     0.072 C 
ENDBRANCH   7  21
TORSDOF 1
ENDMDL
