MODEL 1
REMARK VINA RESULT:      -8.7      0.000      0.000
REMARK  3 active torsions:
REMARK  status: ('A' for Active; 'I' for Inactive)
REMARK    1  A    between atoms: C_4  and  O_11 
REMARK    2  A    between atoms: O_11  and  C_12 
REMARK    3  A    between atoms: C_12  and  C_13 
ROOT
HETATM    1  N   LIG     1     -22.032 -18.282 -10.506  1.00  0.00    -0.244 NA
HETATM    2  C   LIG     1     -24.326 -18.367 -11.234  1.00  0.00     0.018 A 
HETATM    3  C   LIG     1     -22.956 -18.644 -11.415  1.00  0.00     0.083 A 
HETATM    4  C   LIG     1     -23.503 -19.703 -13.538  1.00  0.00     0.096 A 
HETATM    5  C   LIG     1     -22.570 -19.312 -12.574  1.00  0.00     0.043 A 
HETATM    6  C   LIG     1     -25.265 -18.759 -12.205  1.00  0.00     0.004 A 
HETATM    7  C   LIG     1     -24.851 -19.426 -13.353  1.00  0.00     0.024 A 
HETATM    8  C   LIG     1     -24.716 -17.694 -10.068  1.00  0.00     0.003 A 
HETATM    9  C   LIG     1     -23.765 -17.319  -9.128  1.00  0.00     0.021 A 
HETATM   10  C   LIG     1     -22.448 -17.635  -9.394  1.00  0.00     0.099 A 
ENDROOT
BRANCH   4  11
HETATM   11  O   LIG     1     -23.088 -20.354 -14.660  1.00  0.00    -0.326 OA
BRANCH  11  12
HETATM   12  C   LIG     1     -22.757 -21.735 -14.524  1.00  0.00     0.175 C 
BRANCH  12  13
HETATM   13  C   LIG     1     -23.763 -22.556 -15.276  1.00  0.00     0.008 A 
HETATM   14  C   LIG     1     -24.625 -21.935 -16.174  1.00  0.00    -0.002 A 
HETATM   15  C   LIG     1     -25.561 -22.700 -16.873  1.00  0.00    -0.000 A 
HETATM   16  C   LIG     1     -25.628 -24.077 -16.669  1.00  0.00    -0.000 A 
HETATM   17  C   LIG     1     -24.760 -24.692 -15.767  1.00  0.00    -0.000 A 
HETATM   18  C   LIG     1     -23.825 -23.929 -15.068  1.00  0.00    -0.002 A 
ENDBRANCH  12  13
ENDBRANCH  11  12
ENDBRANCH   4  11
TORSDOF 3
ENDMDL
