MODEL 1
REMARK VINA RESULT:     -10.2      0.000      0.000
REMARK  1 active torsions:
REMARK  status: ('A' for Active; 'I' for Inactive)
REMARK    1  A    between atoms: C_10  and  C_15 
ROOT
HETATM    1 CL   LIG     1     -18.881 -20.621  -7.270  1.00  0.00    -0.084 Cl
HETATM    2  N   LIG     1     -19.933 -17.331 -12.097  1.00  0.00    -0.300 N 
HETATM    3  N   LIG     1     -20.985 -15.355 -10.018  1.00  0.00    -0.282 NA
HETATM    4  N   LIG     1     -20.123 -16.751 -14.251  1.00  0.00    -0.245 NA
HETATM    5  C   LIG     1     -19.772 -18.125 -10.937  1.00  0.00     0.053 A 
HETATM    6  C   LIG     1     -20.013 -15.954 -12.135  1.00  0.00     0.056 A 
HETATM    7  C   LIG     1     -20.222 -17.695  -9.672  1.00  0.00     0.022 A 
HETATM    8  C   LIG     1     -19.881 -15.109 -10.926  1.00  0.00     0.208 C 
HETATM    9  C   LIG     1     -21.123 -16.512  -9.466  1.00  0.00     0.077 C 
HETATM   10  C   LIG     1     -19.964 -17.748 -13.410  1.00  0.00     0.107 A 
HETATM   11  C   LIG     1     -20.155 -15.632 -13.466  1.00  0.00     0.145 A 
HETATM   12  C   LIG     1     -19.110 -19.358 -11.056  1.00  0.00     0.032 A 
HETATM   13  C   LIG     1     -19.921 -18.473  -8.541  1.00  0.00     0.040 A 
HETATM   14  C   LIG     1     -20.014 -19.158 -13.861  1.00  0.00     0.091 C 
HETATM   15  C   LIG     1     -18.844 -20.129  -9.924  1.00  0.00     0.026 A 
HETATM   16  C   LIG     1     -19.234 -19.680  -8.668  1.00  0.00     0.035 A 
ENDROOT
BRANCH   9  17
HETATM   17  C   LIG     1     -22.304 -16.675  -8.568  1.00  0.00     0.032 A 
HETATM   18  C   LIG     1     -23.577 -16.769  -9.115  1.00  0.00     0.129 A 
HETATM   19  F   LIG     1     -23.763 -16.715 -10.442  1.00  0.00    -0.205 F 
HETATM   20  C   LIG     1     -24.678 -16.922  -8.273  1.00  0.00     0.043 A 
HETATM   21  C   LIG     1     -24.497 -16.980  -6.891  1.00  0.00     0.003 A 
HETATM   22  C   LIG     1     -23.214 -16.885  -6.351  1.00  0.00     0.001 A 
HETATM   23  C   LIG     1     -22.113 -16.731  -7.193  1.00  0.00     0.017 A 
ENDBRANCH   9  17
TORSDOF 1
ENDMDL
