MODEL 1
REMARK VINA RESULT:      -9.3      0.000      0.000
REMARK  1 active torsions:
REMARK  status: ('A' for Active; 'I' for Inactive)
REMARK    1  A    between atoms: O_1  and  C_10 
ROOT
HETATM    1  O   LIG     1     -19.108 -21.860 -10.499  1.00  0.00    -0.293 OA
HETATM    2  C   LIG     1     -21.443 -15.108 -13.203  1.00  0.00     0.001 C 
HETATM    3  C   LIG     1     -21.449 -13.921 -12.221  1.00  0.00    -0.014 C 
HETATM    4  C   LIG     1     -20.297 -16.090 -12.936  1.00  0.00    -0.004 C 
HETATM    5  C   LIG     1     -20.446 -16.652 -11.487  1.00  0.00     0.002 C 
HETATM    6  C   LIG     1     -19.334 -17.711 -11.126  1.00  0.00    -0.016 C 
HETATM    7  C   LIG     1     -21.669 -14.474 -10.808  1.00  0.00     0.012 C 
HETATM    8  C   LIG     1     -20.598 -15.516 -10.437  1.00  0.00     0.007 C 
HETATM    9  C   LIG     1     -22.639 -13.127 -12.794  1.00  0.00     0.126 C 
HETATM   10  C   LIG     1     -21.546 -14.439 -14.571  1.00  0.00     0.008 C 
HETATM   11  C   LIG     1     -20.299 -17.240 -13.950  1.00  0.00     0.010 C 
HETATM   12  C   LIG     1     -22.445 -13.214 -14.322  1.00  0.00     0.033 C 
HETATM   13  C   LIG     1     -19.239 -18.757 -12.244  1.00  0.00    -0.068 C 
HETATM   14  C   LIG     1     -19.180 -18.231 -13.660  1.00  0.00     0.035 C 
HETATM   15  C   LIG     1     -20.163 -13.056 -12.245  1.00  0.00     0.018 C 
HETATM   16  C   LIG     1     -19.732 -18.400  -9.788  1.00  0.00     0.022 C 
HETATM   17  C   LIG     1     -17.944 -17.057 -10.957  1.00  0.00     0.020 C 
HETATM   18  C   LIG     1     -18.966 -19.684  -9.511  1.00  0.00     0.084 C 
HETATM   19  C   LIG     1     -19.182 -20.082 -12.032  1.00  0.00     0.053 C 
HETATM   20  C   LIG     1     -19.114 -20.641 -10.662  1.00  0.00     0.149 C 
ENDROOT
BRANCH   9  21
HETATM   21  O   LIG     1     -22.676 -11.786 -12.347  1.00  0.00    -0.395 OA
HETATM   22  H   LIG     1     -22.258 -11.219 -13.016  1.00  0.00     0.210 HD
ENDBRANCH   9  21
TORSDOF 1
ENDMDL
