MODEL 1
REMARK VINA RESULT:      -9.4      0.000      0.000
REMARK  1 active torsions:
REMARK  status: ('A' for Active; 'I' for Inactive)
REMARK    1  A    between atoms: O_4  and  C_17 
ROOT
HETATM    1  O   LIG     1     -23.018 -23.333 -15.012  1.00  0.00    -0.318 OA
HETATM    2  O   LIG     1     -24.537 -24.039 -16.715  1.00  0.00    -0.331 OA
HETATM    3  O   LIG     1     -24.790 -18.980 -15.311  1.00  0.00    -0.273 OA
HETATM    4  O   LIG     1     -23.741 -14.697 -14.817  1.00  0.00    -0.292 OA
HETATM    5  O   LIG     1     -25.691 -16.874 -15.474  1.00  0.00    -0.259 OA
HETATM    6  C   LIG     1     -25.004 -21.978 -15.510  1.00  0.00     0.105 A 
HETATM    7  C   LIG     1     -23.822 -21.170 -15.143  1.00  0.00     0.023 A 
HETATM    8  C   LIG     1     -24.406 -23.401 -15.422  1.00  0.00     0.284 A 
HETATM    9  C   LIG     1     -23.673 -19.798 -15.035  1.00  0.00     0.103 A 
HETATM   10  C   LIG     1     -22.441 -19.247 -14.658  1.00  0.00     0.039 A 
HETATM   11  C   LIG     1     -22.747 -21.998 -14.871  1.00  0.00     0.084 A 
HETATM   12  C   LIG     1     -22.352 -17.798 -14.565  1.00  0.00    -0.022 A 
HETATM   13  C   LIG     1     -21.127 -17.035 -14.180  1.00  0.00     0.048 A 
HETATM   14  C   LIG     1     -25.414 -21.920 -16.929  1.00  0.00     0.012 A 
HETATM   15  C   LIG     1     -23.426 -17.055 -14.836  1.00  0.00     0.092 A 
HETATM   16  C   LIG     1     -21.363 -20.110 -14.390  1.00  0.00     0.084 A 
HETATM   17  C   LIG     1     -21.563 -15.572 -14.235  1.00  0.00     0.089 A 
HETATM   18  C   LIG     1     -21.513 -21.497 -14.495  1.00  0.00     0.075 A 
HETATM   19  C   LIG     1     -23.006 -15.659 -14.651  1.00  0.00     0.166 A 
HETATM   20  C   LIG     1     -25.135 -23.082 -17.504  1.00  0.00     0.135 A 
HETATM   21  C   LIG     1     -24.728 -17.589 -15.231  1.00  0.00     0.302 A 
ENDROOT
BRANCH  16  22
HETATM   22  O   LIG     1     -20.132 -19.656 -14.015  1.00  0.00    -0.355 OA
HETATM   23  C   LIG     1     -19.454 -20.391 -13.000  1.00  0.00     0.210 C 
ENDBRANCH  16  22
TORSDOF 1
ENDMDL
