MODEL 1
REMARK VINA RESULT:      -9.6      0.000      0.000
REMARK  1 active torsions:
REMARK  status: ('A' for Active; 'I' for Inactive)
REMARK    1  A    between atoms: C_10  and  C_15 
ROOT
HETATM    1 CL   LIG     1     -18.403 -17.795 -10.561  1.00  0.00    -0.084 Cl
HETATM    2  N   LIG     1     -22.350 -13.762 -12.402  1.00  0.00    -0.300 N 
HETATM    3  N   LIG     1     -22.664 -13.301  -9.398  1.00  0.00    -0.282 NA
HETATM    4  N   LIG     1     -23.680 -12.586 -13.765  1.00  0.00    -0.245 NA
HETATM    5  C   LIG     1     -21.478 -14.772 -11.932  1.00  0.00     0.053 A 
HETATM    6  C   LIG     1     -22.736 -12.634 -11.708  1.00  0.00     0.056 A 
HETATM    7  C   LIG     1     -21.341 -15.057 -10.558  1.00  0.00     0.022 A 
HETATM    8  C   LIG     1     -22.222 -12.308 -10.358  1.00  0.00     0.208 C 
HETATM    9  C   LIG     1     -22.262 -14.522  -9.500  1.00  0.00     0.077 C 
HETATM   10  C   LIG     1     -22.921 -13.652 -13.651  1.00  0.00     0.107 A 
HETATM   11  C   LIG     1     -23.571 -11.948 -12.561  1.00  0.00     0.145 A 
HETATM   12  C   LIG     1     -20.707 -15.480 -12.868  1.00  0.00     0.032 A 
HETATM   13  C   LIG     1     -20.368 -15.985 -10.148  1.00  0.00     0.040 A 
HETATM   14  C   LIG     1     -22.875 -14.687 -14.710  1.00  0.00     0.091 C 
HETATM   15  C   LIG     1     -19.764 -16.417 -12.442  1.00  0.00     0.026 A 
HETATM   16  C   LIG     1     -19.584 -16.658 -11.085  1.00  0.00     0.035 A 
ENDROOT
BRANCH   9  17
HETATM   17  C   LIG     1     -22.792 -15.476  -8.481  1.00  0.00     0.032 A 
HETATM   18  C   LIG     1     -22.094 -15.677  -7.298  1.00  0.00     0.129 A 
HETATM   19  F   LIG     1     -20.946 -15.028  -7.055  1.00  0.00    -0.205 F 
HETATM   20  C   LIG     1     -22.593 -16.568  -6.348  1.00  0.00     0.043 A 
HETATM   21  C   LIG     1     -23.785 -17.249  -6.588  1.00  0.00     0.003 A 
HETATM   22  C   LIG     1     -24.480 -17.039  -7.781  1.00  0.00     0.001 A 
HETATM   23  C   LIG     1     -23.981 -16.149  -8.731  1.00  0.00     0.017 A 
ENDBRANCH   9  17
TORSDOF 1
ENDMDL
