MODEL 1
REMARK VINA RESULT:      -7.1      0.000      0.000
REMARK  1 active torsions:
REMARK  status: ('A' for Active; 'I' for Inactive)
REMARK    1  A    between atoms: O_2  and  C_9 
ROOT
HETATM    1 BR   LIG     1     -25.446 -23.632 -15.893  1.00  0.00    -0.051 Br
HETATM    2  N   LIG     1     -19.871 -21.390 -14.209  1.00  0.00    -0.191 NA
HETATM    3  C   LIG     1     -22.944 -19.774 -14.928  1.00  0.00    -0.002 A 
HETATM    4  C   LIG     1     -24.307 -19.661 -15.290  1.00  0.00    -0.023 A 
HETATM    5  C   LIG     1     -22.211 -18.610 -14.643  1.00  0.00     0.050 A 
HETATM    6  C   LIG     1     -22.354 -21.047 -14.862  1.00  0.00     0.057 A 
HETATM    7  C   LIG     1     -24.897 -18.387 -15.357  1.00  0.00     0.015 A 
HETATM    8  C   LIG     1     -22.813 -17.353 -14.715  1.00  0.00     0.069 A 
HETATM    9  C   LIG     1     -25.041 -20.824 -15.576  1.00  0.00     0.031 A 
HETATM   10  C   LIG     1     -24.153 -17.242 -15.070  1.00  0.00     0.037 A 
HETATM   11  C   LIG     1     -23.097 -22.191 -15.149  1.00  0.00     0.042 A 
HETATM   12  C   LIG     1     -24.438 -22.080 -15.506  1.00  0.00     0.013 A 
HETATM   13  C   LIG     1     -20.978 -21.237 -14.501  1.00  0.00     0.100 C 
ENDROOT
BRANCH   8  14
HETATM   14  O   LIG     1     -22.089 -16.236 -14.434  1.00  0.00    -0.356 OA
HETATM   15  C   LIG     1     -20.669 -16.371 -14.412  1.00  0.00     0.210 C 
ENDBRANCH   8  14
TORSDOF 1
ENDMDL
MODEL 2
REMARK VINA RESULT:      -7.1      4.989      6.124
REMARK  1 active torsions:
REMARK  status: ('A' for Active; 'I' for Inactive)
REMARK    1  A    between atoms: O_2  and  C_9 
ROOT
HETATM    1 BR   LIG     1     -18.863 -20.733  -7.328  1.00  0.00    -0.051 Br
HETATM    2  N   LIG     1     -19.559 -22.086 -13.380  1.00  0.00    -0.191 NA
HETATM    3  C   LIG     1     -19.174 -18.997 -11.683  1.00  0.00    -0.002 A 
HETATM    4  C   LIG     1     -19.003 -18.123 -10.584  1.00  0.00    -0.023 A 
HETATM    5  C   LIG     1     -19.265 -18.461 -12.978  1.00  0.00     0.050 A 
HETATM    6  C   LIG     1     -19.249 -20.380 -11.455  1.00  0.00     0.057 A 
HETATM    7  C   LIG     1     -18.928 -16.738 -10.811  1.00  0.00     0.015 A 
HETATM    8  C   LIG     1     -19.189 -17.083 -13.186  1.00  0.00     0.069 A 
HETATM    9  C   LIG     1     -18.912 -18.658  -9.288  1.00  0.00     0.031 A 
HETATM   10  C   LIG     1     -19.020 -16.224 -12.105  1.00  0.00     0.037 A 
HETATM   11  C   LIG     1     -19.158 -20.895 -10.162  1.00  0.00     0.042 A 
HETATM   12  C   LIG     1     -18.990 -20.035  -9.081  1.00  0.00     0.013 A 
HETATM   13  C   LIG     1     -19.421 -21.326 -12.522  1.00  0.00     0.100 C 
ENDROOT
BRANCH   8  14
HETATM   14  O   LIG     1     -19.277 -16.580 -14.447  1.00  0.00    -0.356 OA
HETATM   15  C   LIG     1     -20.255 -15.566 -14.675  1.00  0.00     0.210 C 
ENDBRANCH   8  14
TORSDOF 1
ENDMDL
MODEL 3
REMARK VINA RESULT:      -6.9      6.992      7.683
REMARK  1 active torsions:
REMARK  status: ('A' for Active; 'I' for Inactive)
REMARK    1  A    between atoms: O_2  and  C_9 
ROOT
HETATM    1 BR   LIG     1     -23.709 -13.189 -17.303  1.00  0.00    -0.051 Br
HETATM    2  N   LIG     1     -18.523 -14.237 -13.993  1.00  0.00    -0.191 NA
HETATM    3  C   LIG     1     -21.702 -12.976 -13.059  1.00  0.00    -0.002 A 
HETATM    4  C   LIG     1     -23.045 -12.562 -13.228  1.00  0.00    -0.023 A 
HETATM    5  C   LIG     1     -21.118 -12.906 -11.784  1.00  0.00     0.050 A 
HETATM    6  C   LIG     1     -20.984 -13.447 -14.170  1.00  0.00     0.057 A 
HETATM    7  C   LIG     1     -23.764 -12.090 -12.118  1.00  0.00     0.015 A 
HETATM    8  C   LIG     1     -21.847 -12.434 -10.691  1.00  0.00     0.069 A 
HETATM    9  C   LIG     1     -23.630 -12.632 -14.504  1.00  0.00     0.031 A 
HETATM   10  C   LIG     1     -23.167 -12.028 -10.858  1.00  0.00     0.037 A 
HETATM   11  C   LIG     1     -21.580 -13.510 -15.429  1.00  0.00     0.042 A 
HETATM   12  C   LIG     1     -22.900 -13.102 -15.596  1.00  0.00     0.013 A 
HETATM   13  C   LIG     1     -19.620 -13.885 -14.072  1.00  0.00     0.100 C 
ENDROOT
BRANCH   8  14
HETATM   14  O   LIG     1     -21.267 -12.373  -9.462  1.00  0.00    -0.356 OA
HETATM   15  C   LIG     1     -21.481 -13.481  -8.588  1.00  0.00     0.210 C 
ENDBRANCH   8  14
TORSDOF 1
ENDMDL
MODEL 4
REMARK VINA RESULT:      -6.8      5.675      6.369
REMARK  1 active torsions:
REMARK  status: ('A' for Active; 'I' for Inactive)
REMARK    1  A    between atoms: O_2  and  C_9 
ROOT
HETATM    1 BR   LIG     1     -18.979 -21.531 -10.602  1.00  0.00    -0.051 Br
HETATM    2  N   LIG     1     -20.081 -15.883  -8.186  1.00  0.00    -0.191 NA
HETATM    3  C   LIG     1     -19.374 -16.935 -11.497  1.00  0.00    -0.002 A 
HETATM    4  C   LIG     1     -19.082 -17.838 -12.547  1.00  0.00    -0.023 A 
HETATM    5  C   LIG     1     -19.488 -15.565 -11.783  1.00  0.00     0.050 A 
HETATM    6  C   LIG     1     -19.542 -17.429 -10.194  1.00  0.00     0.057 A 
HETATM    7  C   LIG     1     -18.913 -17.344 -13.851  1.00  0.00     0.015 A 
HETATM    8  C   LIG     1     -19.318 -15.091 -13.085  1.00  0.00     0.069 A 
HETATM    9  C   LIG     1     -18.967 -19.209 -12.262  1.00  0.00     0.031 A 
HETATM   10  C   LIG     1     -19.031 -15.979 -14.116  1.00  0.00     0.037 A 
HETATM   11  C   LIG     1     -19.424 -18.793  -9.928  1.00  0.00     0.042 A 
HETATM   12  C   LIG     1     -19.136 -19.681 -10.961  1.00  0.00     0.013 A 
HETATM   13  C   LIG     1     -19.841 -16.572  -9.081  1.00  0.00     0.100 C 
ENDROOT
BRANCH   8  14
HETATM   14  O   LIG     1     -19.433 -13.761 -13.344  1.00  0.00    -0.356 OA
HETATM   15  C   LIG     1     -19.854 -12.923 -12.268  1.00  0.00     0.210 C 
ENDBRANCH   8  14
TORSDOF 1
ENDMDL
MODEL 5
REMARK VINA RESULT:      -6.7      7.200      8.372
REMARK  1 active torsions:
REMARK  status: ('A' for Active; 'I' for Inactive)
REMARK    1  A    between atoms: O_2  and  C_9 
ROOT
HETATM    1 BR   LIG     1     -22.762 -12.761  -9.939  1.00  0.00    -0.051 Br
HETATM    2  N   LIG     1     -22.908 -17.576  -5.971  1.00  0.00    -0.191 NA
HETATM    3  C   LIG     1     -20.969 -16.973  -8.878  1.00  0.00    -0.002 A 
HETATM    4  C   LIG     1     -20.503 -16.271 -10.015  1.00  0.00    -0.023 A 
HETATM    5  C   LIG     1     -20.423 -18.231  -8.576  1.00  0.00     0.050 A 
HETATM    6  C   LIG     1     -21.970 -16.396  -8.079  1.00  0.00     0.057 A 
HETATM    7  C   LIG     1     -19.503 -16.847 -10.816  1.00  0.00     0.015 A 
HETATM    8  C   LIG     1     -19.430 -18.789  -9.383  1.00  0.00     0.069 A 
HETATM    9  C   LIG     1     -21.049 -15.013 -10.319  1.00  0.00     0.031 A 
HETATM   10  C   LIG     1     -18.971 -18.098 -10.500  1.00  0.00     0.037 A 
HETATM   11  C   LIG     1     -22.501 -15.147  -8.394  1.00  0.00     0.042 A 
HETATM   12  C   LIG     1     -22.043 -14.456  -9.512  1.00  0.00     0.013 A 
HETATM   13  C   LIG     1     -22.490 -17.050  -6.911  1.00  0.00     0.100 C 
ENDROOT
BRANCH   8  14
HETATM   14  O   LIG     1     -18.910 -20.008  -9.076  1.00  0.00    -0.356 OA
HETATM   15  C   LIG     1     -18.986 -21.018 -10.081  1.00  0.00     0.210 C 
ENDBRANCH   8  14
TORSDOF 1
ENDMDL
MODEL 6
REMARK VINA RESULT:      -6.7      2.195      3.427
REMARK  1 active torsions:
REMARK  status: ('A' for Active; 'I' for Inactive)
REMARK    1  A    between atoms: O_2  and  C_9 
ROOT
HETATM    1 BR   LIG     1     -25.535 -23.370 -16.050  1.00  0.00    -0.051 Br
HETATM    2  N   LIG     1     -24.914 -17.209 -15.273  1.00  0.00    -0.191 NA
HETATM    3  C   LIG     1     -22.655 -19.892 -14.751  1.00  0.00    -0.002 A 
HETATM    4  C   LIG     1     -22.204 -21.233 -14.721  1.00  0.00    -0.023 A 
HETATM    5  C   LIG     1     -21.782 -18.865 -14.359  1.00  0.00     0.050 A 
HETATM    6  C   LIG     1     -23.967 -19.619 -15.171  1.00  0.00     0.057 A 
HETATM    7  C   LIG     1     -20.892 -21.507 -14.300  1.00  0.00     0.015 A 
HETATM    8  C   LIG     1     -20.481 -19.156 -13.944  1.00  0.00     0.069 A 
HETATM    9  C   LIG     1     -23.077 -22.261 -15.112  1.00  0.00     0.031 A 
HETATM   10  C   LIG     1     -20.037 -20.474 -13.915  1.00  0.00     0.037 A 
HETATM   11  C   LIG     1     -24.821 -20.651 -15.556  1.00  0.00     0.042 A 
HETATM   12  C   LIG     1     -24.378 -21.970 -15.526  1.00  0.00     0.013 A 
HETATM   13  C   LIG     1     -24.492 -18.283 -15.227  1.00  0.00     0.100 C 
ENDROOT
BRANCH   8  14
HETATM   14  O   LIG     1     -19.646 -18.149 -13.568  1.00  0.00    -0.356 OA
HETATM   15  C   LIG     1     -18.940 -18.315 -12.340  1.00  0.00     0.210 C 
ENDBRANCH   8  14
TORSDOF 1
ENDMDL
MODEL 7
REMARK VINA RESULT:      -6.7      6.865      7.406
REMARK  1 active torsions:
REMARK  status: ('A' for Active; 'I' for Inactive)
REMARK    1  A    between atoms: O_2  and  C_9 
ROOT
HETATM    1 BR   LIG     1     -24.204 -17.108  -6.898  1.00  0.00    -0.051 Br
HETATM    2  N   LIG     1     -19.191 -17.667 -10.573  1.00  0.00    -0.191 NA
HETATM    3  C   LIG     1     -21.425 -14.969 -10.026  1.00  0.00    -0.002 A 
HETATM    4  C   LIG     1     -22.528 -14.278  -9.471  1.00  0.00    -0.023 A 
HETATM    5  C   LIG     1     -20.606 -14.315 -10.961  1.00  0.00     0.050 A 
HETATM    6  C   LIG     1     -21.176 -16.294  -9.633  1.00  0.00     0.057 A 
HETATM    7  C   LIG     1     -22.778 -12.953  -9.865  1.00  0.00     0.015 A 
HETATM    8  C   LIG     1     -20.869 -12.998 -11.341  1.00  0.00     0.069 A 
HETATM    9  C   LIG     1     -23.349 -14.932  -8.537  1.00  0.00     0.031 A 
HETATM   10  C   LIG     1     -21.952 -12.319 -10.794  1.00  0.00     0.037 A 
HETATM   11  C   LIG     1     -22.001 -16.928  -8.705  1.00  0.00     0.042 A 
HETATM   12  C   LIG     1     -23.086 -16.248  -8.158  1.00  0.00     0.013 A 
HETATM   13  C   LIG     1     -20.076 -17.055 -10.154  1.00  0.00     0.100 C 
ENDROOT
BRANCH   8  14
HETATM   14  O   LIG     1     -20.064 -12.378 -12.246  1.00  0.00    -0.356 OA
HETATM   15  C   LIG     1     -19.113 -13.191 -12.932  1.00  0.00     0.210 C 
ENDBRANCH   8  14
TORSDOF 1
ENDMDL
MODEL 8
REMARK VINA RESULT:      -6.5      3.171      4.868
REMARK  1 active torsions:
REMARK  status: ('A' for Active; 'I' for Inactive)
REMARK    1  A    between atoms: O_2  and  C_9 
ROOT
HETATM    1 BR   LIG     1     -22.698 -16.270 -14.736  1.00  0.00    -0.051 Br
HETATM    2  N   LIG     1     -19.676 -21.629 -13.689  1.00  0.00    -0.191 NA
HETATM    3  C   LIG     1     -22.890 -20.956 -15.028  1.00  0.00    -0.002 A 
HETATM    4  C   LIG     1     -23.987 -20.174 -15.460  1.00  0.00    -0.023 A 
HETATM    5  C   LIG     1     -22.964 -22.355 -15.121  1.00  0.00     0.050 A 
HETATM    6  C   LIG     1     -21.751 -20.314 -14.512  1.00  0.00     0.057 A 
HETATM    7  C   LIG     1     -25.127 -20.815 -15.975  1.00  0.00     0.015 A 
HETATM    8  C   LIG     1     -24.104 -22.975 -15.635  1.00  0.00     0.069 A 
HETATM    9  C   LIG     1     -23.914 -18.775 -15.366  1.00  0.00     0.031 A 
HETATM   10  C   LIG     1     -25.182 -22.207 -16.061  1.00  0.00     0.037 A 
HETATM   11  C   LIG     1     -21.696 -18.924 -14.426  1.00  0.00     0.042 A 
HETATM   12  C   LIG     1     -22.775 -18.155 -14.851  1.00  0.00     0.013 A 
HETATM   13  C   LIG     1     -20.601 -21.043 -14.056  1.00  0.00     0.100 C 
ENDROOT
BRANCH   8  14
HETATM   14  O   LIG     1     -24.159 -24.332 -15.721  1.00  0.00    -0.356 OA
HETATM   15  C   LIG     1     -25.375 -24.903 -16.204  1.00  0.00     0.210 C 
ENDBRANCH   8  14
TORSDOF 1
ENDMDL
MODEL 9
REMARK VINA RESULT:      -6.5      6.769      6.974
REMARK  1 active torsions:
REMARK  status: ('A' for Active; 'I' for Inactive)
REMARK    1  A    between atoms: O_2  and  C_9 
ROOT
HETATM    1 BR   LIG     1     -24.217 -17.223  -6.534  1.00  0.00    -0.051 Br
HETATM    2  N   LIG     1     -18.841 -19.022  -9.143  1.00  0.00    -0.191 NA
HETATM    3  C   LIG     1     -21.032 -16.332  -9.873  1.00  0.00    -0.002 A 
HETATM    4  C   LIG     1     -22.168 -15.498  -9.737  1.00  0.00    -0.023 A 
HETATM    5  C   LIG     1     -20.091 -16.051 -10.876  1.00  0.00     0.050 A 
HETATM    6  C   LIG     1     -20.874 -17.422  -9.002  1.00  0.00     0.057 A 
HETATM    7  C   LIG     1     -22.328 -14.408 -10.608  1.00  0.00     0.015 A 
HETATM    8  C   LIG     1     -20.266 -14.964 -11.733  1.00  0.00     0.069 A 
HETATM    9  C   LIG     1     -23.111 -15.778  -8.734  1.00  0.00     0.031 A 
HETATM   10  C   LIG     1     -21.381 -14.144 -11.599  1.00  0.00     0.037 A 
HETATM   11  C   LIG     1     -21.819 -17.686  -8.012  1.00  0.00     0.042 A 
HETATM   12  C   LIG     1     -22.936 -16.866  -7.878  1.00  0.00     0.013 A 
HETATM   13  C   LIG     1     -19.747 -18.309  -9.080  1.00  0.00     0.100 C 
ENDROOT
BRANCH   8  14
HETATM   14  O   LIG     1     -19.343 -14.705 -12.699  1.00  0.00    -0.356 OA
HETATM   15  C   LIG     1     -19.008 -13.336 -12.926  1.00  0.00     0.210 C 
ENDBRANCH   8  14
TORSDOF 1
ENDMDL
