MODEL 1
REMARK VINA RESULT:      -9.8      0.000      0.000
REMARK  9 active torsions:
REMARK  status: ('A' for Active; 'I' for Inactive)
REMARK    1  A    between atoms: O_3  and  C_15 
REMARK    2  A    between atoms: O_3  and  C_24 
REMARK    3  A    between atoms: O_4  and  C_30 
REMARK    4  A    between atoms: O_4  and  C_32 
REMARK    5  A    between atoms: O_5  and  C_23 
REMARK    6  A    between atoms: N_11  and  C_22 
REMARK       I    between atoms: N_11  and  C_31 
REMARK    7  A    between atoms: N_12  and  C_28 
REMARK    8  A    between atoms: C_24  and  C_32 
REMARK    9  A    between atoms: C_30  and  C_31 
ROOT
HETATM    1  O   LIG     1     -22.163 -16.392 -14.496  1.00  0.00    -0.310 OA
ENDROOT
BRANCH   1   2
HETATM    2  C   LIG     1     -23.584 -16.277 -14.613  1.00  0.00     0.281 C 
BRANCH   2   3
HETATM    3  C   LIG     1     -24.192 -17.661 -14.576  1.00  0.00     0.246 C 
HETATM    4  O   LIG     1     -25.241 -17.865 -13.971  1.00  0.00    -0.271 OA
HETATM    5  N   LIG     1     -23.426 -18.574 -15.288  1.00  0.00    -0.323 N 
HETATM    6  H   LIG     1     -22.578 -18.230 -15.732  1.00  0.00     0.169 HD
BRANCH   5   7
HETATM    7  C   LIG     1     -23.681 -19.955 -15.474  1.00  0.00     0.068 A 
HETATM    8  C   LIG     1     -22.801 -20.914 -14.973  1.00  0.00     0.097 A 
HETATM    9  C   LIG     1     -23.066 -22.270 -15.163  1.00  0.00     0.075 A 
HETATM   10  C   LIG     1     -24.210 -22.667 -15.853  1.00  0.00     0.105 A 
HETATM   11  C   LIG     1     -25.092 -21.708 -16.354  1.00  0.00     0.038 A 
HETATM   12  C   LIG     1     -24.827 -20.351 -16.164  1.00  0.00     0.035 A 
BRANCH   8  13
HETATM   13  O   LIG     1     -21.676 -20.547 -14.296  1.00  0.00    -0.354 OA
HETATM   14  C   LIG     1     -20.593 -21.473 -14.291  1.00  0.00     0.210 C 
ENDBRANCH   8  13
BRANCH  10  15
HETATM   15  N   LIG     1     -24.481 -24.047 -16.049  1.00  0.00    -0.116 N 
HETATM   16  O   LIG     1     -24.432 -24.824 -15.065  1.00  0.00    -0.532 OA
HETATM   17  O   LIG     1     -24.764 -24.452 -17.203  1.00  0.00    -0.532 OA
ENDBRANCH  10  15
ENDBRANCH   5   7
ENDBRANCH   2   3
ENDBRANCH   1   2
BRANCH   1  18
HETATM   18  C   LIG     1     -21.555 -15.434 -13.736  1.00  0.00     0.283 C 
HETATM   19  O   LIG     1     -20.734 -14.617 -14.130  1.00  0.00    -0.263 OA
BRANCH  18  20
HETATM   20  C   LIG     1     -22.056 -15.541 -12.320  1.00  0.00     0.286 C 
BRANCH  20  21
HETATM   21  O   LIG     1     -20.985 -15.244 -11.431  1.00  0.00    -0.337 OA
BRANCH  21  22
HETATM   22  C   LIG     1     -20.499 -16.283 -10.683  1.00  0.00     0.120 A 
HETATM   23  C   LIG     1     -21.249 -16.742  -9.603  1.00  0.00     0.104 A 
HETATM   24  N   LIG     1     -22.431 -16.166  -9.310  1.00  0.00    -0.250 NA
HETATM   25  C   LIG     1     -20.733 -17.811  -8.842  1.00  0.00     0.017 A 
HETATM   26  C   LIG     1     -23.128 -16.642  -8.252  1.00  0.00     0.031 A 
HETATM   27  C   LIG     1     -22.705 -17.683  -7.451  1.00  0.00     0.027 A 
HETATM   28  C   LIG     1     -24.432 -15.976  -7.962  1.00  0.00     0.070 C 
HETATM   29  C   LIG     1     -21.488 -18.273  -7.756  1.00  0.00     0.017 A 
HETATM   30  C   LIG     1     -19.496 -18.387  -9.177  1.00  0.00     0.048 A 
HETATM   31 CL   LIG     1     -18.794 -19.705  -8.293  1.00  0.00    -0.083 Cl
HETATM   32  C   LIG     1     -18.766 -17.910 -10.262  1.00  0.00     0.051 A 
HETATM   33  C   LIG     1     -19.268 -16.856 -11.015  1.00  0.00     0.071 A 
HETATM   34 CL   LIG     1     -18.350 -16.276 -12.356  1.00  0.00    -0.081 Cl
ENDBRANCH  21  22
ENDBRANCH  20  21
ENDBRANCH  18  20
ENDBRANCH   1  18
TORSDOF 9
ENDMDL
MODEL 2
REMARK VINA RESULT:      -9.6      4.167      6.606
REMARK  9 active torsions:
REMARK  status: ('A' for Active; 'I' for Inactive)
REMARK    1  A    between atoms: O_3  and  C_15 
REMARK    2  A    between atoms: O_3  and  C_24 
REMARK    3  A    between atoms: O_4  and  C_30 
REMARK    4  A    between atoms: O_4  and  C_32 
REMARK    5  A    between atoms: O_5  and  C_23 
REMARK    6  A    between atoms: N_11  and  C_22 
REMARK       I    between atoms: N_11  and  C_31 
REMARK    7  A    between atoms: N_12  and  C_28 
REMARK    8  A    between atoms: C_24  and  C_32 
REMARK    9  A    between atoms: C_30  and  C_31 
ROOT
HETATM    1  O   LIG     1     -20.736 -15.267  -9.638  1.00  0.00    -0.310 OA
ENDROOT
BRANCH   1   2
HETATM    2  C   LIG     1     -21.450 -14.034  -9.772  1.00  0.00     0.281 C 
BRANCH   2   3
HETATM    3  C   LIG     1     -21.431 -13.613 -11.225  1.00  0.00     0.246 C 
HETATM    4  O   LIG     1     -20.504 -12.943 -11.668  1.00  0.00    -0.271 OA
HETATM    5  N   LIG     1     -22.545 -14.086 -11.907  1.00  0.00    -0.323 N 
HETATM    6  H   LIG     1     -23.222 -14.632 -11.380  1.00  0.00     0.169 HD
BRANCH   5   7
HETATM    7  C   LIG     1     -22.865 -13.893 -13.273  1.00  0.00     0.068 A 
HETATM    8  C   LIG     1     -22.750 -14.942 -14.185  1.00  0.00     0.097 A 
HETATM    9  C   LIG     1     -23.070 -14.737 -15.527  1.00  0.00     0.075 A 
HETATM   10  C   LIG     1     -23.504 -13.485 -15.958  1.00  0.00     0.105 A 
HETATM   11  C   LIG     1     -23.620 -12.435 -15.045  1.00  0.00     0.038 A 
HETATM   12  C   LIG     1     -23.301 -12.639 -13.703  1.00  0.00     0.035 A 
BRANCH   8  13
HETATM   13  O   LIG     1     -22.326 -16.174 -13.785  1.00  0.00    -0.354 OA
HETATM   14  C   LIG     1     -22.608 -17.269 -14.652  1.00  0.00     0.210 C 
ENDBRANCH   8  13
BRANCH  10  15
HETATM   15  N   LIG     1     -23.829 -13.274 -17.324  1.00  0.00    -0.116 N 
HETATM   16  O   LIG     1     -24.137 -12.120 -17.706  1.00  0.00    -0.532 OA
HETATM   17  O   LIG     1     -23.797 -14.250 -18.112  1.00  0.00    -0.532 OA
ENDBRANCH  10  15
ENDBRANCH   5   7
ENDBRANCH   2   3
ENDBRANCH   1   2
BRANCH   1  18
HETATM   18  C   LIG     1     -20.565 -15.712  -8.359  1.00  0.00     0.283 C 
HETATM   19  O   LIG     1     -20.456 -15.012  -7.362  1.00  0.00    -0.263 OA
BRANCH  18  20
HETATM   20  C   LIG     1     -20.529 -17.217  -8.365  1.00  0.00     0.286 C 
BRANCH  20  21
HETATM   21  O   LIG     1     -19.250 -17.644  -8.820  1.00  0.00    -0.337 OA
BRANCH  21  22
HETATM   22  C   LIG     1     -19.224 -18.719  -9.669  1.00  0.00     0.120 A 
HETATM   23  C   LIG     1     -19.169 -18.488 -11.041  1.00  0.00     0.104 A 
HETATM   24  N   LIG     1     -19.144 -17.227 -11.513  1.00  0.00    -0.250 NA
HETATM   25  C   LIG     1     -19.144 -19.606 -11.901  1.00  0.00     0.017 A 
HETATM   26  C   LIG     1     -19.091 -17.047 -12.853  1.00  0.00     0.031 A 
HETATM   27  C   LIG     1     -19.062 -18.077 -13.772  1.00  0.00     0.027 A 
HETATM   28  C   LIG     1     -19.063 -15.635 -13.333  1.00  0.00     0.070 C 
HETATM   29  C   LIG     1     -19.090 -19.374 -13.282  1.00  0.00     0.017 A 
HETATM   30  C   LIG     1     -19.173 -20.908 -11.374  1.00  0.00     0.048 A 
HETATM   31 CL   LIG     1     -19.143 -22.332 -12.364  1.00  0.00    -0.083 Cl
HETATM   32  C   LIG     1     -19.227 -21.110  -9.997  1.00  0.00     0.051 A 
HETATM   33  C   LIG     1     -19.252 -20.014  -9.144  1.00  0.00     0.071 A 
HETATM   34 CL   LIG     1     -19.320 -20.283  -7.441  1.00  0.00    -0.081 Cl
ENDBRANCH  21  22
ENDBRANCH  20  21
ENDBRANCH  18  20
ENDBRANCH   1  18
TORSDOF 9
ENDMDL
MODEL 3
REMARK VINA RESULT:      -9.6      1.917      2.766
REMARK  9 active torsions:
REMARK  status: ('A' for Active; 'I' for Inactive)
REMARK    1  A    between atoms: O_3  and  C_15 
REMARK    2  A    between atoms: O_3  and  C_24 
REMARK    3  A    between atoms: O_4  and  C_30 
REMARK    4  A    between atoms: O_4  and  C_32 
REMARK    5  A    between atoms: O_5  and  C_23 
REMARK    6  A    between atoms: N_11  and  C_22 
REMARK       I    between atoms: N_11  and  C_31 
REMARK    7  A    between atoms: N_12  and  C_28 
REMARK    8  A    between atoms: C_24  and  C_32 
REMARK    9  A    between atoms: C_30  and  C_31 
ROOT
HETATM    1  O   LIG     1     -19.927 -17.039 -13.944  1.00  0.00    -0.310 OA
ENDROOT
BRANCH   1   2
HETATM    2  C   LIG     1     -21.148 -16.325 -14.163  1.00  0.00     0.281 C 
BRANCH   2   3
HETATM    3  C   LIG     1     -22.280 -17.319 -14.290  1.00  0.00     0.246 C 
HETATM    4  O   LIG     1     -23.443 -16.964 -14.120  1.00  0.00    -0.271 OA
HETATM    5  N   LIG     1     -21.813 -18.587 -14.611  1.00  0.00    -0.323 N 
HETATM    6  H   LIG     1     -20.808 -18.704 -14.716  1.00  0.00     0.169 HD
BRANCH   5   7
HETATM    7  C   LIG     1     -22.577 -19.762 -14.810  1.00  0.00     0.068 A 
HETATM    8  C   LIG     1     -21.965 -21.015 -14.818  1.00  0.00     0.097 A 
HETATM    9  C   LIG     1     -22.731 -22.164 -15.014  1.00  0.00     0.075 A 
HETATM   10  C   LIG     1     -24.108 -22.061 -15.202  1.00  0.00     0.105 A 
HETATM   11  C   LIG     1     -24.721 -20.807 -15.194  1.00  0.00     0.038 A 
HETATM   12  C   LIG     1     -23.955 -19.657 -14.997  1.00  0.00     0.035 A 
BRANCH   8  13
HETATM   13  O   LIG     1     -20.619 -21.138 -14.637  1.00  0.00    -0.354 OA
HETATM   14  C   LIG     1     -20.173 -21.518 -13.338  1.00  0.00     0.210 C 
ENDBRANCH   8  13
BRANCH  10  15
HETATM   15  N   LIG     1     -24.889 -23.229 -15.404  1.00  0.00    -0.116 N 
HETATM   16  O   LIG     1     -24.336 -24.353 -15.330  1.00  0.00    -0.532 OA
HETATM   17  O   LIG     1     -26.114 -23.105 -15.649  1.00  0.00    -0.532 OA
ENDBRANCH  10  15
ENDBRANCH   5   7
ENDBRANCH   2   3
ENDBRANCH   1   2
BRANCH   1  18
HETATM   18  C   LIG     1     -19.175 -16.611 -12.888  1.00  0.00     0.283 C 
HETATM   19  O   LIG     1     -18.487 -15.600 -12.857  1.00  0.00    -0.263 OA
BRANCH  18  20
HETATM   20  C   LIG     1     -19.325 -17.588 -11.752  1.00  0.00     0.286 C 
BRANCH  20  21
HETATM   21  O   LIG     1     -19.157 -16.891 -10.522  1.00  0.00    -0.337 OA
BRANCH  21  22
HETATM   22  C   LIG     1     -20.199 -16.945  -9.635  1.00  0.00     0.120 A 
HETATM   23  C   LIG     1     -21.083 -15.871  -9.573  1.00  0.00     0.104 A 
HETATM   24  N   LIG     1     -20.907 -14.804 -10.376  1.00  0.00    -0.250 NA
HETATM   25  C   LIG     1     -22.150 -15.942  -8.653  1.00  0.00     0.017 A 
HETATM   26  C   LIG     1     -21.789 -13.782 -10.284  1.00  0.00     0.031 A 
HETATM   27  C   LIG     1     -22.862 -13.762  -9.416  1.00  0.00     0.027 A 
HETATM   28  C   LIG     1     -21.557 -12.620 -11.191  1.00  0.00     0.070 C 
HETATM   29  C   LIG     1     -23.040 -14.862  -8.590  1.00  0.00     0.017 A 
HETATM   30  C   LIG     1     -22.303 -17.070  -7.830  1.00  0.00     0.048 A 
HETATM   31 CL   LIG     1     -23.588 -17.234  -6.676  1.00  0.00    -0.083 Cl
HETATM   32  C   LIG     1     -21.405 -18.131  -7.913  1.00  0.00     0.051 A 
HETATM   33  C   LIG     1     -20.352 -18.067  -8.816  1.00  0.00     0.071 A 
HETATM   34 CL   LIG     1     -19.247 -19.390  -8.905  1.00  0.00    -0.081 Cl
ENDBRANCH  21  22
ENDBRANCH  20  21
ENDBRANCH  18  20
ENDBRANCH   1  18
TORSDOF 9
ENDMDL
MODEL 4
REMARK VINA RESULT:      -9.6      1.787      2.713
REMARK  9 active torsions:
REMARK  status: ('A' for Active; 'I' for Inactive)
REMARK    1  A    between atoms: O_3  and  C_15 
REMARK    2  A    between atoms: O_3  and  C_24 
REMARK    3  A    between atoms: O_4  and  C_30 
REMARK    4  A    between atoms: O_4  and  C_32 
REMARK    5  A    between atoms: O_5  and  C_23 
REMARK    6  A    between atoms: N_11  and  C_22 
REMARK       I    between atoms: N_11  and  C_31 
REMARK    7  A    between atoms: N_12  and  C_28 
REMARK    8  A    between atoms: C_24  and  C_32 
REMARK    9  A    between atoms: C_30  and  C_31 
ROOT
HETATM    1  O   LIG     1     -22.840 -15.568 -13.244  1.00  0.00    -0.310 OA
ENDROOT
BRANCH   1   2
HETATM    2  C   LIG     1     -23.132 -16.101 -14.540  1.00  0.00     0.281 C 
BRANCH   2   3
HETATM    3  C   LIG     1     -23.723 -17.484 -14.379  1.00  0.00     0.246 C 
HETATM    4  O   LIG     1     -24.616 -17.688 -13.561  1.00  0.00    -0.271 OA
HETATM    5  N   LIG     1     -23.135 -18.395 -15.246  1.00  0.00    -0.323 N 
HETATM    6  H   LIG     1     -22.403 -18.051 -15.862  1.00  0.00     0.169 HD
BRANCH   5   7
HETATM    7  C   LIG     1     -23.432 -19.773 -15.379  1.00  0.00     0.068 A 
HETATM    8  C   LIG     1     -22.540 -20.741 -14.914  1.00  0.00     0.097 A 
HETATM    9  C   LIG     1     -22.846 -22.094 -15.051  1.00  0.00     0.075 A 
HETATM   10  C   LIG     1     -24.043 -22.481 -15.652  1.00  0.00     0.105 A 
HETATM   11  C   LIG     1     -24.935 -21.514 -16.117  1.00  0.00     0.038 A 
HETATM   12  C   LIG     1     -24.629 -20.160 -15.980  1.00  0.00     0.035 A 
BRANCH   8  13
HETATM   13  O   LIG     1     -21.364 -20.382 -14.324  1.00  0.00    -0.354 OA
HETATM   14  C   LIG     1     -20.417 -21.421 -14.087  1.00  0.00     0.210 C 
ENDBRANCH   8  13
BRANCH  10  15
HETATM   15  N   LIG     1     -24.355 -23.859 -15.794  1.00  0.00    -0.116 N 
HETATM   16  O   LIG     1     -24.730 -24.287 -16.912  1.00  0.00    -0.532 OA
HETATM   17  O   LIG     1     -24.247 -24.612 -14.795  1.00  0.00    -0.532 OA
ENDBRANCH  10  15
ENDBRANCH   5   7
ENDBRANCH   2   3
ENDBRANCH   1   2
BRANCH   1  18
HETATM   18  C   LIG     1     -21.572 -15.091 -13.076  1.00  0.00     0.283 C 
HETATM   19  O   LIG     1     -21.095 -14.105 -13.622  1.00  0.00    -0.263 OA
BRANCH  18  20
HETATM   20  C   LIG     1     -20.840 -15.978 -12.104  1.00  0.00     0.286 C 
BRANCH  20  21
HETATM   21  O   LIG     1     -20.695 -15.286 -10.869  1.00  0.00    -0.337 OA
BRANCH  21  22
HETATM   22  C   LIG     1     -21.518 -15.672  -9.845  1.00  0.00     0.120 A 
HETATM   23  C   LIG     1     -21.231 -16.850  -9.161  1.00  0.00     0.104 A 
HETATM   24  N   LIG     1     -20.161 -17.589  -9.510  1.00  0.00    -0.250 NA
HETATM   25  C   LIG     1     -22.090 -17.234  -8.110  1.00  0.00     0.017 A 
HETATM   26  C   LIG     1     -19.918 -18.728  -8.820  1.00  0.00     0.031 A 
HETATM   27  C   LIG     1     -20.699 -19.183  -7.777  1.00  0.00     0.027 A 
HETATM   28  C   LIG     1     -18.721 -19.516  -9.238  1.00  0.00     0.070 C 
HETATM   29  C   LIG     1     -21.802 -18.420  -7.422  1.00  0.00     0.017 A 
HETATM   30  C   LIG     1     -23.198 -16.439  -7.774  1.00  0.00     0.048 A 
HETATM   31 CL   LIG     1     -24.299 -16.840  -6.495  1.00  0.00    -0.083 Cl
HETATM   32  C   LIG     1     -23.462 -15.265  -8.474  1.00  0.00     0.051 A 
HETATM   33  C   LIG     1     -22.621 -14.881  -9.511  1.00  0.00     0.071 A 
HETATM   34 CL   LIG     1     -22.963 -13.423 -10.368  1.00  0.00    -0.081 Cl
ENDBRANCH  21  22
ENDBRANCH  20  21
ENDBRANCH  18  20
ENDBRANCH   1  18
TORSDOF 9
ENDMDL
MODEL 5
REMARK VINA RESULT:      -9.3      3.886      6.610
REMARK  9 active torsions:
REMARK  status: ('A' for Active; 'I' for Inactive)
REMARK    1  A    between atoms: O_3  and  C_15 
REMARK    2  A    between atoms: O_3  and  C_24 
REMARK    3  A    between atoms: O_4  and  C_30 
REMARK    4  A    between atoms: O_4  and  C_32 
REMARK    5  A    between atoms: O_5  and  C_23 
REMARK    6  A    between atoms: N_11  and  C_22 
REMARK       I    between atoms: N_11  and  C_31 
REMARK    7  A    between atoms: N_12  and  C_28 
REMARK    8  A    between atoms: C_24  and  C_32 
REMARK    9  A    between atoms: C_30  and  C_31 
ROOT
HETATM    1  O   LIG     1     -21.539 -12.631 -11.141  1.00  0.00    -0.310 OA
ENDROOT
BRANCH   1   2
HETATM    2  C   LIG     1     -22.575 -13.365 -10.480  1.00  0.00     0.281 C 
BRANCH   2   3
HETATM    3  C   LIG     1     -22.232 -14.838 -10.518  1.00  0.00     0.246 C 
HETATM    4  O   LIG     1     -22.760 -15.579 -11.341  1.00  0.00    -0.271 OA
HETATM    5  N   LIG     1     -21.293 -15.168  -9.549  1.00  0.00    -0.323 N 
HETATM    6  H   LIG     1     -20.958 -14.421  -8.946  1.00  0.00     0.169 HD
BRANCH   5   7
HETATM    7  C   LIG     1     -20.735 -16.443  -9.289  1.00  0.00     0.068 A 
HETATM    8  C   LIG     1     -21.262 -17.259  -8.288  1.00  0.00     0.097 A 
HETATM    9  C   LIG     1     -20.703 -18.513  -8.044  1.00  0.00     0.075 A 
HETATM   10  C   LIG     1     -19.617 -18.952  -8.800  1.00  0.00     0.105 A 
HETATM   11  C   LIG     1     -19.089 -18.136  -9.802  1.00  0.00     0.038 A 
HETATM   12  C   LIG     1     -19.649 -16.881 -10.046  1.00  0.00     0.035 A 
BRANCH   8  13
HETATM   13  O   LIG     1     -22.324 -16.849  -7.537  1.00  0.00    -0.354 OA
HETATM   14  C   LIG     1     -23.624 -17.162  -8.029  1.00  0.00     0.210 C 
ENDBRANCH   8  13
BRANCH  10  15
HETATM   15  N   LIG     1     -19.045 -20.227  -8.552  1.00  0.00    -0.116 N 
HETATM   16  O   LIG     1     -18.816 -20.573  -7.368  1.00  0.00    -0.532 OA
HETATM   17  O   LIG     1     -18.785 -20.975  -9.525  1.00  0.00    -0.532 OA
ENDBRANCH  10  15
ENDBRANCH   5   7
ENDBRANCH   2   3
ENDBRANCH   1   2
BRANCH   1  18
HETATM   18  C   LIG     1     -21.564 -12.678 -12.505  1.00  0.00     0.283 C 
HETATM   19  O   LIG     1     -22.556 -12.564 -13.212  1.00  0.00    -0.263 OA
BRANCH  18  20
HETATM   20  C   LIG     1     -20.163 -12.896 -13.013  1.00  0.00     0.286 C 
BRANCH  20  21
HETATM   21  O   LIG     1     -20.219 -13.699 -14.186  1.00  0.00    -0.337 OA
BRANCH  21  22
HETATM   22  C   LIG     1     -20.030 -15.046 -14.021  1.00  0.00     0.120 A 
HETATM   23  C   LIG     1     -21.081 -15.912 -14.314  1.00  0.00     0.104 A 
HETATM   24  N   LIG     1     -22.257 -15.422 -14.750  1.00  0.00    -0.250 NA
HETATM   25  C   LIG     1     -20.869 -17.295 -14.138  1.00  0.00     0.017 A 
HETATM   26  C   LIG     1     -23.252 -16.298 -15.023  1.00  0.00     0.031 A 
HETATM   27  C   LIG     1     -23.139 -17.666 -14.882  1.00  0.00     0.027 A 
HETATM   28  C   LIG     1     -24.538 -15.714 -15.505  1.00  0.00     0.070 C 
HETATM   29  C   LIG     1     -21.926 -18.167 -14.432  1.00  0.00     0.017 A 
HETATM   30  C   LIG     1     -19.629 -17.770 -13.680  1.00  0.00     0.048 A 
HETATM   31 CL   LIG     1     -19.290 -19.454 -13.439  1.00  0.00    -0.083 Cl
HETATM   32  C   LIG     1     -18.595 -16.883 -13.395  1.00  0.00     0.051 A 
HETATM   33  C   LIG     1     -18.796 -15.519 -13.566  1.00  0.00     0.071 A 
HETATM   34 CL   LIG     1     -17.504 -14.433 -13.207  1.00  0.00    -0.081 Cl
ENDBRANCH  21  22
ENDBRANCH  20  21
ENDBRANCH  18  20
ENDBRANCH   1  18
TORSDOF 9
ENDMDL
MODEL 6
REMARK VINA RESULT:      -9.3      2.031      3.177
REMARK  9 active torsions:
REMARK  status: ('A' for Active; 'I' for Inactive)
REMARK    1  A    between atoms: O_3  and  C_15 
REMARK    2  A    between atoms: O_3  and  C_24 
REMARK    3  A    between atoms: O_4  and  C_30 
REMARK    4  A    between atoms: O_4  and  C_32 
REMARK    5  A    between atoms: O_5  and  C_23 
REMARK    6  A    between atoms: N_11  and  C_22 
REMARK       I    between atoms: N_11  and  C_31 
REMARK    7  A    between atoms: N_12  and  C_28 
REMARK    8  A    between atoms: C_24  and  C_32 
REMARK    9  A    between atoms: C_30  and  C_31 
ROOT
HETATM    1  O   LIG     1     -23.087 -14.821 -13.998  1.00  0.00    -0.310 OA
ENDROOT
BRANCH   1   2
HETATM    2  C   LIG     1     -22.491 -15.874 -14.762  1.00  0.00     0.281 C 
BRANCH   2   3
HETATM    3  C   LIG     1     -23.222 -17.165 -14.467  1.00  0.00     0.246 C 
HETATM    4  O   LIG     1     -24.054 -17.219 -13.567  1.00  0.00    -0.271 OA
HETATM    5  N   LIG     1     -22.826 -18.183 -15.325  1.00  0.00    -0.323 N 
HETATM    6  H   LIG     1     -22.118 -17.962 -16.021  1.00  0.00     0.169 HD
BRANCH   5   7
HETATM    7  C   LIG     1     -23.291 -19.520 -15.349  1.00  0.00     0.068 A 
HETATM    8  C   LIG     1     -22.489 -20.561 -14.882  1.00  0.00     0.097 A 
HETATM    9  C   LIG     1     -22.961 -21.873 -14.911  1.00  0.00     0.075 A 
HETATM   10  C   LIG     1     -24.235 -22.145 -15.407  1.00  0.00     0.105 A 
HETATM   11  C   LIG     1     -25.039 -21.104 -15.874  1.00  0.00     0.038 A 
HETATM   12  C   LIG     1     -24.566 -19.791 -15.845  1.00  0.00     0.035 A 
BRANCH   8  13
HETATM   13  O   LIG     1     -21.239 -20.316 -14.394  1.00  0.00    -0.354 OA
HETATM   14  C   LIG     1     -20.365 -21.435 -14.265  1.00  0.00     0.210 C 
ENDBRANCH   8  13
BRANCH  10  15
HETATM   15  N   LIG     1     -24.717 -23.480 -15.439  1.00  0.00    -0.116 N 
HETATM   16  O   LIG     1     -25.950 -23.680 -15.560  1.00  0.00    -0.532 OA
HETATM   17  O   LIG     1     -23.895 -24.424 -15.345  1.00  0.00    -0.532 OA
ENDBRANCH  10  15
ENDBRANCH   5   7
ENDBRANCH   2   3
ENDBRANCH   1   2
BRANCH   1  18
HETATM   18  C   LIG     1     -22.379 -13.655 -13.950  1.00  0.00     0.283 C 
HETATM   19  O   LIG     1     -21.695 -13.191 -14.853  1.00  0.00    -0.263 OA
BRANCH  18  20
HETATM   20  C   LIG     1     -22.570 -13.020 -12.598  1.00  0.00     0.286 C 
BRANCH  20  21
HETATM   21  O   LIG     1     -21.371 -13.171 -11.847  1.00  0.00    -0.337 OA
BRANCH  21  22
HETATM   22  C   LIG     1     -21.281 -14.277 -11.043  1.00  0.00     0.120 A 
HETATM   23  C   LIG     1     -20.421 -15.307 -11.412  1.00  0.00     0.104 A 
HETATM   24  N   LIG     1     -19.695 -15.207 -12.542  1.00  0.00    -0.250 NA
HETATM   25  C   LIG     1     -20.342 -16.439 -10.573  1.00  0.00     0.017 A 
HETATM   26  C   LIG     1     -18.871 -16.231 -12.864  1.00  0.00     0.031 A 
HETATM   27  C   LIG     1     -18.726 -17.377 -12.108  1.00  0.00     0.027 A 
HETATM   28  C   LIG     1     -18.084 -16.080 -14.123  1.00  0.00     0.070 C 
HETATM   29  C   LIG     1     -19.476 -17.476 -10.945  1.00  0.00     0.017 A 
HETATM   30  C   LIG     1     -21.115 -16.509  -9.403  1.00  0.00     0.048 A 
HETATM   31 CL   LIG     1     -21.074 -17.864  -8.320  1.00  0.00    -0.083 Cl
HETATM   32  C   LIG     1     -21.967 -15.464  -9.057  1.00  0.00     0.051 A 
HETATM   33  C   LIG     1     -22.051 -14.347  -9.878  1.00  0.00     0.071 A 
HETATM   34 CL   LIG     1     -23.113 -13.061  -9.434  1.00  0.00    -0.081 Cl
ENDBRANCH  21  22
ENDBRANCH  20  21
ENDBRANCH  18  20
ENDBRANCH   1  18
TORSDOF 9
ENDMDL
MODEL 7
REMARK VINA RESULT:      -9.3      4.714      7.013
REMARK  9 active torsions:
REMARK  status: ('A' for Active; 'I' for Inactive)
REMARK    1  A    between atoms: O_3  and  C_15 
REMARK    2  A    between atoms: O_3  and  C_24 
REMARK    3  A    between atoms: O_4  and  C_30 
REMARK    4  A    between atoms: O_4  and  C_32 
REMARK    5  A    between atoms: O_5  and  C_23 
REMARK    6  A    between atoms: N_11  and  C_22 
REMARK       I    between atoms: N_11  and  C_31 
REMARK    7  A    between atoms: N_12  and  C_28 
REMARK    8  A    between atoms: C_24  and  C_32 
REMARK    9  A    between atoms: C_30  and  C_31 
ROOT
HETATM    1  O   LIG     1     -21.393 -15.811  -7.476  1.00  0.00    -0.310 OA
ENDROOT
BRANCH   1   2
HETATM    2  C   LIG     1     -21.227 -14.564  -8.158  1.00  0.00     0.281 C 
BRANCH   2   3
HETATM    3  C   LIG     1     -22.215 -14.497  -9.302  1.00  0.00     0.246 C 
HETATM    4  O   LIG     1     -23.418 -14.628  -9.095  1.00  0.00    -0.271 OA
HETATM    5  N   LIG     1     -21.577 -14.273 -10.515  1.00  0.00    -0.323 N 
HETATM    6  H   LIG     1     -20.563 -14.188 -10.504  1.00  0.00     0.169 HD
BRANCH   5   7
HETATM    7  C   LIG     1     -22.173 -14.151 -11.793  1.00  0.00     0.068 A 
HETATM    8  C   LIG     1     -22.670 -12.924 -12.233  1.00  0.00     0.097 A 
HETATM    9  C   LIG     1     -23.254 -12.820 -13.495  1.00  0.00     0.075 A 
HETATM   10  C   LIG     1     -23.342 -13.941 -14.318  1.00  0.00     0.105 A 
HETATM   11  C   LIG     1     -22.845 -15.169 -13.879  1.00  0.00     0.038 A 
HETATM   12  C   LIG     1     -22.260 -15.274 -12.616  1.00  0.00     0.035 A 
BRANCH   8  13
HETATM   13  O   LIG     1     -22.594 -11.815 -11.442  1.00  0.00    -0.354 OA
HETATM   14  C   LIG     1     -23.762 -11.468 -10.702  1.00  0.00     0.210 C 
ENDBRANCH   8  13
BRANCH  10  15
HETATM   15  N   LIG     1     -23.937 -13.837 -15.602  1.00  0.00    -0.116 N 
HETATM   16  O   LIG     1     -24.797 -14.684 -15.947  1.00  0.00    -0.532 OA
HETATM   17  O   LIG     1     -23.588 -12.898 -16.359  1.00  0.00    -0.532 OA
ENDBRANCH  10  15
ENDBRANCH   5   7
ENDBRANCH   2   3
ENDBRANCH   1   2
BRANCH   1  18
HETATM   18  C   LIG     1     -20.884 -16.904  -8.117  1.00  0.00     0.283 C 
HETATM   19  O   LIG     1     -21.396 -18.014  -8.163  1.00  0.00    -0.263 OA
BRANCH  18  20
HETATM   20  C   LIG     1     -19.578 -16.529  -8.764  1.00  0.00     0.286 C 
BRANCH  20  21
HETATM   21  O   LIG     1     -18.702 -17.649  -8.716  1.00  0.00    -0.337 OA
BRANCH  21  22
HETATM   22  C   LIG     1     -18.871 -18.606  -9.682  1.00  0.00     0.120 A 
HETATM   23  C   LIG     1     -18.907 -18.213 -11.017  1.00  0.00     0.104 A 
HETATM   24  N   LIG     1     -18.777 -16.912 -11.341  1.00  0.00    -0.250 NA
HETATM   25  C   LIG     1     -19.083 -19.211 -11.998  1.00  0.00     0.017 A 
HETATM   26  C   LIG     1     -18.817 -16.573 -12.651  1.00  0.00     0.031 A 
HETATM   27  C   LIG     1     -18.984 -17.477 -13.680  1.00  0.00     0.027 A 
HETATM   28  C   LIG     1     -18.668 -15.122 -12.966  1.00  0.00     0.070 C 
HETATM   29  C   LIG     1     -19.119 -18.816 -13.342  1.00  0.00     0.017 A 
HETATM   30  C   LIG     1     -19.216 -20.558 -11.624  1.00  0.00     0.048 A 
HETATM   31 CL   LIG     1     -19.434 -21.843 -12.769  1.00  0.00    -0.083 Cl
HETATM   32  C   LIG     1     -19.176 -20.924 -10.281  1.00  0.00     0.051 A 
HETATM   33  C   LIG     1     -19.004 -19.947  -9.309  1.00  0.00     0.071 A 
HETATM   34 CL   LIG     1     -18.958 -20.418  -7.650  1.00  0.00    -0.081 Cl
ENDBRANCH  21  22
ENDBRANCH  20  21
ENDBRANCH  18  20
ENDBRANCH   1  18
TORSDOF 9
ENDMDL
MODEL 8
REMARK VINA RESULT:      -9.2      2.266      2.483
REMARK  9 active torsions:
REMARK  status: ('A' for Active; 'I' for Inactive)
REMARK    1  A    between atoms: O_3  and  C_15 
REMARK    2  A    between atoms: O_3  and  C_24 
REMARK    3  A    between atoms: O_4  and  C_30 
REMARK    4  A    between atoms: O_4  and  C_32 
REMARK    5  A    between atoms: O_5  and  C_23 
REMARK    6  A    between atoms: N_11  and  C_22 
REMARK       I    between atoms: N_11  and  C_31 
REMARK    7  A    between atoms: N_12  and  C_28 
REMARK    8  A    between atoms: C_24  and  C_32 
REMARK    9  A    between atoms: C_30  and  C_31 
ROOT
HETATM    1  O   LIG     1     -21.991 -16.219 -14.804  1.00  0.00    -0.310 OA
ENDROOT
BRANCH   1   2
HETATM    2  C   LIG     1     -23.422 -16.231 -14.809  1.00  0.00     0.281 C 
BRANCH   2   3
HETATM    3  C   LIG     1     -23.900 -17.641 -14.540  1.00  0.00     0.246 C 
HETATM    4  O   LIG     1     -24.623 -17.881 -13.578  1.00  0.00    -0.271 OA
HETATM    5  N   LIG     1     -23.424 -18.532 -15.494  1.00  0.00    -0.323 N 
HETATM    6  H   LIG     1     -22.831 -18.158 -16.231  1.00  0.00     0.169 HD
BRANCH   5   7
HETATM    7  C   LIG     1     -23.663 -19.925 -15.566  1.00  0.00     0.068 A 
HETATM    8  C   LIG     1     -22.759 -20.832 -15.013  1.00  0.00     0.097 A 
HETATM    9  C   LIG     1     -23.008 -22.202 -15.092  1.00  0.00     0.075 A 
HETATM   10  C   LIG     1     -24.161 -22.666 -15.723  1.00  0.00     0.105 A 
HETATM   11  C   LIG     1     -25.067 -21.759 -16.276  1.00  0.00     0.038 A 
HETATM   12  C   LIG     1     -24.818 -20.388 -16.197  1.00  0.00     0.035 A 
BRANCH   8  13
HETATM   13  O   LIG     1     -21.624 -20.399 -14.393  1.00  0.00    -0.354 OA
HETATM   14  C   LIG     1     -20.459 -21.207 -14.536  1.00  0.00     0.210 C 
ENDBRANCH   8  13
BRANCH  10  15
HETATM   15  N   LIG     1     -24.416 -24.060 -15.806  1.00  0.00    -0.116 N 
HETATM   16  O   LIG     1     -24.522 -24.724 -14.747  1.00  0.00    -0.532 OA
HETATM   17  O   LIG     1     -24.529 -24.590 -16.938  1.00  0.00    -0.532 OA
ENDBRANCH  10  15
ENDBRANCH   5   7
ENDBRANCH   2   3
ENDBRANCH   1   2
BRANCH   1  18
HETATM   18  C   LIG     1     -21.414 -15.073 -14.336  1.00  0.00     0.283 C 
HETATM   19  O   LIG     1     -21.108 -14.096 -15.005  1.00  0.00    -0.263 OA
BRANCH  18  20
HETATM   20  C   LIG     1     -21.209 -15.200 -12.849  1.00  0.00     0.286 C 
BRANCH  20  21
HETATM   21  O   LIG     1     -22.177 -14.399 -12.182  1.00  0.00    -0.337 OA
BRANCH  21  22
HETATM   22  C   LIG     1     -21.975 -14.171 -10.847  1.00  0.00     0.120 A 
HETATM   23  C   LIG     1     -22.635 -14.975  -9.921  1.00  0.00     0.104 A 
HETATM   24  N   LIG     1     -23.456 -15.956 -10.344  1.00  0.00    -0.250 NA
HETATM   25  C   LIG     1     -22.417 -14.726  -8.550  1.00  0.00     0.017 A 
HETATM   26  C   LIG     1     -24.078 -16.715  -9.412  1.00  0.00     0.031 A 
HETATM   27  C   LIG     1     -23.927 -16.547  -8.050  1.00  0.00     0.027 A 
HETATM   28  C   LIG     1     -24.978 -17.790  -9.923  1.00  0.00     0.070 C 
HETATM   29  C   LIG     1     -23.082 -15.535  -7.619  1.00  0.00     0.017 A 
HETATM   30  C   LIG     1     -21.555 -13.694  -8.145  1.00  0.00     0.048 A 
HETATM   31 CL   LIG     1     -21.233 -13.326  -6.481  1.00  0.00    -0.083 Cl
HETATM   32  C   LIG     1     -20.906 -12.905  -9.091  1.00  0.00     0.051 A 
HETATM   33  C   LIG     1     -21.117 -13.144 -10.443  1.00  0.00     0.071 A 
HETATM   34 CL   LIG     1     -20.306 -12.156 -11.603  1.00  0.00    -0.081 Cl
ENDBRANCH  21  22
ENDBRANCH  20  21
ENDBRANCH  18  20
ENDBRANCH   1  18
TORSDOF 9
ENDMDL
MODEL 9
REMARK VINA RESULT:      -9.0      2.333      3.703
REMARK  9 active torsions:
REMARK  status: ('A' for Active; 'I' for Inactive)
REMARK    1  A    between atoms: O_3  and  C_15 
REMARK    2  A    between atoms: O_3  and  C_24 
REMARK    3  A    between atoms: O_4  and  C_30 
REMARK    4  A    between atoms: O_4  and  C_32 
REMARK    5  A    between atoms: O_5  and  C_23 
REMARK    6  A    between atoms: N_11  and  C_22 
REMARK       I    between atoms: N_11  and  C_31 
REMARK    7  A    between atoms: N_12  and  C_28 
REMARK    8  A    between atoms: C_24  and  C_32 
REMARK    9  A    between atoms: C_30  and  C_31 
ROOT
HETATM    1  O   LIG     1     -20.422 -15.626 -12.815  1.00  0.00    -0.310 OA
ENDROOT
BRANCH   1   2
HETATM    2  C   LIG     1     -19.597 -16.384 -13.705  1.00  0.00     0.281 C 
BRANCH   2   3
HETATM    3  C   LIG     1     -20.108 -17.807 -13.753  1.00  0.00     0.246 C 
HETATM    4  O   LIG     1     -19.459 -18.719 -13.250  1.00  0.00    -0.271 OA
HETATM    5  N   LIG     1     -21.334 -17.888 -14.401  1.00  0.00    -0.323 N 
HETATM    6  H   LIG     1     -21.733 -17.024 -14.759  1.00  0.00     0.169 HD
BRANCH   5   7
HETATM    7  C   LIG     1     -22.111 -19.048 -14.632  1.00  0.00     0.068 A 
HETATM    8  C   LIG     1     -23.485 -18.952 -14.854  1.00  0.00     0.097 A 
HETATM    9  C   LIG     1     -24.237 -20.104 -15.082  1.00  0.00     0.075 A 
HETATM   10  C   LIG     1     -23.617 -21.352 -15.088  1.00  0.00     0.105 A 
HETATM   11  C   LIG     1     -22.242 -21.449 -14.867  1.00  0.00     0.038 A 
HETATM   12  C   LIG     1     -21.489 -20.297 -14.640  1.00  0.00     0.035 A 
BRANCH   8  13
HETATM   13  O   LIG     1     -24.111 -17.740 -14.851  1.00  0.00    -0.354 OA
HETATM   14  C   LIG     1     -25.519 -17.739 -15.071  1.00  0.00     0.210 C 
ENDBRANCH   8  13
BRANCH  10  15
HETATM   15  N   LIG     1     -24.381 -22.526 -15.319  1.00  0.00    -0.116 N 
HETATM   16  O   LIG     1     -25.575 -22.413 -15.688  1.00  0.00    -0.532 OA
HETATM   17  O   LIG     1     -23.841 -23.646 -15.148  1.00  0.00    -0.532 OA
ENDBRANCH  10  15
ENDBRANCH   5   7
ENDBRANCH   2   3
ENDBRANCH   1   2
BRANCH   1  18
HETATM   18  C   LIG     1     -20.359 -14.270 -12.964  1.00  0.00     0.283 C 
HETATM   19  O   LIG     1     -19.654 -13.666 -13.761  1.00  0.00    -0.263 OA
BRANCH  18  20
HETATM   20  C   LIG     1     -21.301 -13.625 -11.983  1.00  0.00     0.286 C 
BRANCH  20  21
HETATM   21  O   LIG     1     -20.819 -13.854 -10.664  1.00  0.00    -0.337 OA
BRANCH  21  22
HETATM   22  C   LIG     1     -21.626 -14.578  -9.828  1.00  0.00     0.120 A 
HETATM   23  C   LIG     1     -21.197 -15.833  -9.402  1.00  0.00     0.104 A 
HETATM   24  N   LIG     1     -20.007 -16.314  -9.811  1.00  0.00    -0.250 NA
HETATM   25  C   LIG     1     -22.042 -16.566  -8.542  1.00  0.00     0.017 A 
HETATM   26  C   LIG     1     -19.628 -17.537  -9.373  1.00  0.00     0.031 A 
HETATM   27  C   LIG     1     -20.385 -18.327  -8.532  1.00  0.00     0.027 A 
HETATM   28  C   LIG     1     -18.303 -18.032  -9.849  1.00  0.00     0.070 C 
HETATM   29  C   LIG     1     -21.610 -17.829  -8.114  1.00  0.00     0.017 A 
HETATM   30  C   LIG     1     -23.276 -16.033  -8.137  1.00  0.00     0.048 A 
HETATM   31 CL   LIG     1     -24.369 -16.871  -7.083  1.00  0.00    -0.083 Cl
HETATM   32  C   LIG     1     -23.681 -14.777  -8.578  1.00  0.00     0.051 A 
HETATM   33  C   LIG     1     -22.855 -14.048  -9.425  1.00  0.00     0.071 A 
HETATM   34 CL   LIG     1     -23.372 -12.493  -9.962  1.00  0.00    -0.081 Cl
ENDBRANCH  21  22
ENDBRANCH  20  21
ENDBRANCH  18  20
ENDBRANCH   1  18
TORSDOF 9
ENDMDL
