MODEL 1
REMARK VINA RESULT:      -8.2      0.000      0.000
REMARK  7 active torsions:
REMARK  status: ('A' for Active; 'I' for Inactive)
REMARK    1  A    between atoms: O_2  and  C_15 
REMARK    2  A    between atoms: O_2  and  C_16 
REMARK    3  A    between atoms: N_5  and  C_14 
REMARK    4  A    between atoms: N_5  and  C_20 
REMARK    5  A    between atoms: C_8  and  C_9 
REMARK    6  A    between atoms: C_9  and  C_10 
REMARK    7  A    between atoms: C_14  and  C_15 
ROOT
HETATM    1  C   LIG     1     -23.089 -12.548 -12.976  1.00  0.00    -0.056 A 
HETATM    2  C   LIG     1     -21.742 -12.865 -12.882  1.00  0.00     0.010 A 
HETATM    3  C   LIG     1     -23.792 -12.078 -11.877  1.00  0.00     0.010 A 
HETATM    4  C   LIG     1     -21.780 -12.238 -10.550  1.00  0.00     0.068 A 
HETATM    5  C   LIG     1     -21.084 -12.710 -11.662  1.00  0.00     0.037 A 
HETATM    6  C   LIG     1     -23.134 -11.922 -10.657  1.00  0.00     0.037 A 
ENDROOT
BRANCH   4   7
HETATM    7  O   LIG     1     -21.139 -12.087  -9.358  1.00  0.00    -0.350 OA
BRANCH   7   8
HETATM    8  C   LIG     1     -21.588 -12.897  -8.273  1.00  0.00     0.195 C 
BRANCH   8   9
HETATM    9  C   LIG     1     -20.658 -14.091  -8.137  1.00  0.00     0.150 C 
BRANCH   9  10
HETATM   10  N   LIG     1     -21.285 -15.293  -8.665  1.00  0.00    -0.368 N 
HETATM   11  C   LIG     1     -20.795 -15.827  -9.931  1.00  0.00     0.151 C 
BRANCH  10  12
HETATM   12  C   LIG     1     -22.335 -15.915  -7.987  1.00  0.00     0.124 A 
HETATM   13  N   LIG     1     -22.077 -16.607  -6.842  1.00  0.00    -0.244 NA
HETATM   14  C   LIG     1     -23.129 -17.190  -6.223  1.00  0.00     0.119 A 
HETATM   15  C   LIG     1     -24.435 -17.122  -6.685  1.00  0.00     0.019 A 
HETATM   16  C   LIG     1     -24.675 -16.411  -7.854  1.00  0.00     0.005 A 
HETATM   17  C   LIG     1     -23.619 -15.798  -8.519  1.00  0.00     0.050 A 
ENDBRANCH  10  12
ENDBRANCH   9  10
ENDBRANCH   8   9
ENDBRANCH   7   8
ENDBRANCH   4   7
BRANCH   1  18
HETATM   18  C   LIG     1     -23.799 -12.715 -14.294  1.00  0.00     0.063 C 
BRANCH  18  19
HETATM   19  C   LIG     1     -22.893 -13.313 -15.355  1.00  0.00     0.153 A 
HETATM   20  S   LIG     1     -23.186 -12.534 -16.973  1.00  0.00    -0.054 SA
HETATM   21  C   LIG     1     -23.549 -14.047 -17.775  1.00  0.00     0.287 A 
HETATM   22  O   LIG     1     -23.815 -14.130 -18.965  1.00  0.00    -0.260 OA
HETATM   23  N   LIG     1     -23.486 -15.068 -16.864  1.00  0.00    -0.287 N 
HETATM   24  C   LIG     1     -23.169 -14.787 -15.552  1.00  0.00     0.239 A 
HETATM   25  H   LIG     1     -23.684 -16.022 -17.149  1.00  0.00     0.172 HD
HETATM   26  O   LIG     1     -23.110 -15.614 -14.649  1.00  0.00    -0.272 OA
ENDBRANCH  18  19
ENDBRANCH   1  18
TORSDOF 7
ENDMDL
MODEL 2
REMARK VINA RESULT:      -8.1      4.546      5.983
REMARK  7 active torsions:
REMARK  status: ('A' for Active; 'I' for Inactive)
REMARK    1  A    between atoms: O_2  and  C_15 
REMARK    2  A    between atoms: O_2  and  C_16 
REMARK    3  A    between atoms: N_5  and  C_14 
REMARK    4  A    between atoms: N_5  and  C_20 
REMARK    5  A    between atoms: C_8  and  C_9 
REMARK    6  A    between atoms: C_9  and  C_10 
REMARK    7  A    between atoms: C_14  and  C_15 
ROOT
HETATM    1  C   LIG     1     -19.645 -17.357 -13.117  1.00  0.00    -0.056 A 
HETATM    2  C   LIG     1     -20.890 -17.039 -13.639  1.00  0.00     0.010 A 
HETATM    3  C   LIG     1     -18.940 -16.449 -12.341  1.00  0.00     0.010 A 
HETATM    4  C   LIG     1     -20.743 -14.862 -12.603  1.00  0.00     0.068 A 
HETATM    5  C   LIG     1     -21.441 -15.784 -13.381  1.00  0.00     0.037 A 
HETATM    6  C   LIG     1     -19.492 -15.195 -12.083  1.00  0.00     0.037 A 
ENDROOT
BRANCH   4   7
HETATM    7  O   LIG     1     -21.280 -13.636 -12.351  1.00  0.00    -0.350 OA
BRANCH   7   8
HETATM    8  C   LIG     1     -21.311 -13.209 -10.990  1.00  0.00     0.195 C 
BRANCH   8   9
HETATM    9  C   LIG     1     -22.431 -13.945 -10.273  1.00  0.00     0.150 C 
BRANCH   9  10
HETATM   10  N   LIG     1     -22.096 -14.150  -8.872  1.00  0.00    -0.368 N 
HETATM   11  C   LIG     1     -21.128 -13.251  -8.256  1.00  0.00     0.151 C 
BRANCH  10  12
HETATM   12  C   LIG     1     -22.676 -15.187  -8.137  1.00  0.00     0.124 A 
HETATM   13  N   LIG     1     -21.948 -15.814  -7.172  1.00  0.00    -0.244 NA
HETATM   14  C   LIG     1     -22.556 -16.810  -6.490  1.00  0.00     0.119 A 
HETATM   15  C   LIG     1     -23.860 -17.222  -6.717  1.00  0.00     0.019 A 
HETATM   16  C   LIG     1     -24.585 -16.568  -7.706  1.00  0.00     0.005 A 
HETATM   17  C   LIG     1     -23.994 -15.539  -8.429  1.00  0.00     0.050 A 
ENDBRANCH  10  12
ENDBRANCH   9  10
ENDBRANCH   8   9
ENDBRANCH   7   8
ENDBRANCH   4   7
BRANCH   1  18
HETATM   18  C   LIG     1     -19.050 -18.713 -13.395  1.00  0.00     0.063 C 
BRANCH  18  19
HETATM   19  C   LIG     1     -19.825 -19.825 -12.710  1.00  0.00     0.153 A 
HETATM   20  S   LIG     1     -19.144 -20.167 -11.058  1.00  0.00    -0.054 SA
HETATM   21  C   LIG     1     -18.853 -21.860 -11.391  1.00  0.00     0.287 A 
HETATM   22  O   LIG     1     -18.392 -22.638 -10.570  1.00  0.00    -0.260 OA
HETATM   23  N   LIG     1     -19.216 -22.135 -12.684  1.00  0.00    -0.287 N 
HETATM   24  C   LIG     1     -19.721 -21.124 -13.475  1.00  0.00     0.239 A 
HETATM   25  H   LIG     1     -19.102 -23.071 -13.061  1.00  0.00     0.172 HD
HETATM   26  O   LIG     1     -20.052 -21.249 -14.649  1.00  0.00    -0.272 OA
ENDBRANCH  18  19
ENDBRANCH   1  18
TORSDOF 7
ENDMDL
MODEL 3
REMARK VINA RESULT:      -7.8      3.900      4.708
REMARK  7 active torsions:
REMARK  status: ('A' for Active; 'I' for Inactive)
REMARK    1  A    between atoms: O_2  and  C_15 
REMARK    2  A    between atoms: O_2  and  C_16 
REMARK    3  A    between atoms: N_5  and  C_14 
REMARK    4  A    between atoms: N_5  and  C_20 
REMARK    5  A    between atoms: C_8  and  C_9 
REMARK    6  A    between atoms: C_9  and  C_10 
REMARK    7  A    between atoms: C_14  and  C_15 
ROOT
HETATM    1  C   LIG     1     -22.035 -17.249 -14.359  1.00  0.00    -0.056 A 
HETATM    2  C   LIG     1     -20.711 -17.363 -13.960  1.00  0.00     0.010 A 
HETATM    3  C   LIG     1     -22.799 -16.147 -14.005  1.00  0.00     0.010 A 
HETATM    4  C   LIG     1     -20.896 -15.239 -12.825  1.00  0.00     0.068 A 
HETATM    5  C   LIG     1     -20.139 -16.352 -13.188  1.00  0.00     0.037 A 
HETATM    6  C   LIG     1     -22.226 -15.136 -13.233  1.00  0.00     0.037 A 
ENDROOT
BRANCH   4   7
HETATM    7  O   LIG     1     -20.338 -14.252 -12.070  1.00  0.00    -0.350 OA
BRANCH   7   8
HETATM    8  C   LIG     1     -21.015 -13.895 -10.867  1.00  0.00     0.195 C 
BRANCH   8   9
HETATM    9  C   LIG     1     -20.780 -14.984  -9.833  1.00  0.00     0.150 C 
BRANCH   9  10
HETATM   10  N   LIG     1     -21.401 -14.632  -8.565  1.00  0.00    -0.368 N 
HETATM   11  C   LIG     1     -20.973 -13.405  -7.906  1.00  0.00     0.151 C 
BRANCH  10  12
HETATM   12  C   LIG     1     -22.372 -15.453  -7.987  1.00  0.00     0.124 A 
HETATM   13  N   LIG     1     -22.041 -16.236  -6.922  1.00  0.00    -0.244 NA
HETATM   14  C   LIG     1     -23.018 -17.011  -6.399  1.00  0.00     0.119 A 
HETATM   15  C   LIG     1     -24.317 -17.052  -6.881  1.00  0.00     0.019 A 
HETATM   16  C   LIG     1     -24.633 -16.245  -7.968  1.00  0.00     0.005 A 
HETATM   17  C   LIG     1     -23.656 -15.434  -8.534  1.00  0.00     0.050 A 
ENDBRANCH  10  12
ENDBRANCH   9  10
ENDBRANCH   8   9
ENDBRANCH   7   8
ENDBRANCH   4   7
BRANCH   1  18
HETATM   18  C   LIG     1     -22.653 -18.341 -15.194  1.00  0.00     0.063 C 
BRANCH  18  19
HETATM   19  C   LIG     1     -23.027 -19.552 -14.357  1.00  0.00     0.153 A 
HETATM   20  S   LIG     1     -22.178 -21.044 -14.961  1.00  0.00    -0.054 SA
HETATM   21  C   LIG     1     -23.662 -21.938 -15.211  1.00  0.00     0.287 A 
HETATM   22  O   LIG     1     -23.692 -23.091 -15.614  1.00  0.00    -0.260 OA
HETATM   23  N   LIG     1     -24.729 -21.141 -14.891  1.00  0.00    -0.287 N 
HETATM   24  C   LIG     1     -24.505 -19.853 -14.450  1.00  0.00     0.239 A 
HETATM   25  H   LIG     1     -25.678 -21.490 -14.989  1.00  0.00     0.172 HD
HETATM   26  O   LIG     1     -25.382 -19.046 -14.161  1.00  0.00    -0.272 OA
ENDBRANCH  18  19
ENDBRANCH   1  18
TORSDOF 7
ENDMDL
MODEL 4
REMARK VINA RESULT:      -7.8      5.352      7.289
REMARK  7 active torsions:
REMARK  status: ('A' for Active; 'I' for Inactive)
REMARK    1  A    between atoms: O_2  and  C_15 
REMARK    2  A    between atoms: O_2  and  C_16 
REMARK    3  A    between atoms: N_5  and  C_14 
REMARK    4  A    between atoms: N_5  and  C_20 
REMARK    5  A    between atoms: C_8  and  C_9 
REMARK    6  A    between atoms: C_9  and  C_10 
REMARK    7  A    between atoms: C_14  and  C_15 
ROOT
HETATM    1  C   LIG     1     -24.290 -18.983 -14.833  1.00  0.00    -0.056 A 
HETATM    2  C   LIG     1     -25.182 -17.944 -15.053  1.00  0.00     0.010 A 
HETATM    3  C   LIG     1     -22.928 -18.746 -14.718  1.00  0.00     0.010 A 
HETATM    4  C   LIG     1     -23.336 -16.387 -15.047  1.00  0.00     0.068 A 
HETATM    5  C   LIG     1     -24.702 -16.639 -15.160  1.00  0.00     0.037 A 
HETATM    6  C   LIG     1     -22.449 -17.441 -14.826  1.00  0.00     0.037 A 
ENDROOT
BRANCH   4   7
HETATM    7  O   LIG     1     -22.866 -15.113 -15.152  1.00  0.00    -0.350 OA
BRANCH   7   8
HETATM    8  C   LIG     1     -22.139 -14.596 -14.040  1.00  0.00     0.195 C 
BRANCH   8   9
HETATM    9  C   LIG     1     -20.740 -14.221 -14.501  1.00  0.00     0.150 C 
BRANCH   9  10
HETATM   10  N   LIG     1     -19.777 -14.412 -13.428  1.00  0.00    -0.368 N 
HETATM   11  C   LIG     1     -19.053 -13.245 -12.937  1.00  0.00     0.151 C 
BRANCH  10  12
HETATM   12  C   LIG     1     -19.541 -15.678 -12.889  1.00  0.00     0.124 A 
HETATM   13  N   LIG     1     -19.700 -15.877 -11.551  1.00  0.00    -0.244 NA
HETATM   14  C   LIG     1     -19.460 -17.121 -11.079  1.00  0.00     0.119 A 
HETATM   15  C   LIG     1     -19.066 -18.188 -11.872  1.00  0.00     0.019 A 
HETATM   16  C   LIG     1     -18.909 -17.963 -13.235  1.00  0.00     0.005 A 
HETATM   17  C   LIG     1     -19.147 -16.697 -13.757  1.00  0.00     0.050 A 
ENDBRANCH  10  12
ENDBRANCH   9  10
ENDBRANCH   8   9
ENDBRANCH   7   8
ENDBRANCH   4   7
BRANCH   1  18
HETATM   18  C   LIG     1     -24.809 -20.393 -14.716  1.00  0.00     0.063 C 
BRANCH  18  19
HETATM   19  C   LIG     1     -24.177 -21.317 -15.743  1.00  0.00     0.153 A 
HETATM   20  S   LIG     1     -25.452 -22.237 -16.658  1.00  0.00    -0.054 SA
HETATM   21  C   LIG     1     -24.800 -23.805 -16.236  1.00  0.00     0.287 A 
HETATM   22  O   LIG     1     -25.279 -24.860 -16.625  1.00  0.00    -0.260 OA
HETATM   23  N   LIG     1     -23.709 -23.638 -15.424  1.00  0.00    -0.287 N 
HETATM   24  C   LIG     1     -23.308 -22.363 -15.083  1.00  0.00     0.239 A 
HETATM   25  H   LIG     1     -23.208 -24.445 -15.065  1.00  0.00     0.172 HD
HETATM   26  O   LIG     1     -22.365 -22.096 -14.345  1.00  0.00    -0.272 OA
ENDBRANCH  18  19
ENDBRANCH   1  18
TORSDOF 7
ENDMDL
MODEL 5
REMARK VINA RESULT:      -7.8      5.551      8.457
REMARK  7 active torsions:
REMARK  status: ('A' for Active; 'I' for Inactive)
REMARK    1  A    between atoms: O_2  and  C_15 
REMARK    2  A    between atoms: O_2  and  C_16 
REMARK    3  A    between atoms: N_5  and  C_14 
REMARK    4  A    between atoms: N_5  and  C_20 
REMARK    5  A    between atoms: C_8  and  C_9 
REMARK    6  A    between atoms: C_9  and  C_10 
REMARK    7  A    between atoms: C_14  and  C_15 
ROOT
HETATM    1  C   LIG     1     -23.535 -20.171 -14.872  1.00  0.00    -0.056 A 
HETATM    2  C   LIG     1     -24.693 -19.576 -14.394  1.00  0.00     0.010 A 
HETATM    3  C   LIG     1     -22.358 -19.449 -15.000  1.00  0.00     0.010 A 
HETATM    4  C   LIG     1     -23.497 -17.491 -14.160  1.00  0.00     0.068 A 
HETATM    5  C   LIG     1     -24.673 -18.228 -14.036  1.00  0.00     0.037 A 
HETATM    6  C   LIG     1     -22.339 -18.102 -14.642  1.00  0.00     0.037 A 
ENDROOT
BRANCH   4   7
HETATM    7  O   LIG     1     -23.477 -16.175 -13.812  1.00  0.00    -0.350 OA
BRANCH   7   8
HETATM    8  C   LIG     1     -22.352 -15.719 -13.063  1.00  0.00     0.195 C 
BRANCH   8   9
HETATM    9  C   LIG     1     -22.318 -14.199 -13.108  1.00  0.00     0.150 C 
BRANCH   9  10
HETATM   10  N   LIG     1     -21.788 -13.734 -14.379  1.00  0.00    -0.368 N 
HETATM   11  C   LIG     1     -20.347 -13.547 -14.498  1.00  0.00     0.151 C 
BRANCH  10  12
HETATM   12  C   LIG     1     -22.634 -13.461 -15.456  1.00  0.00     0.124 A 
HETATM   13  N   LIG     1     -23.693 -12.622 -15.280  1.00  0.00    -0.244 NA
HETATM   14  C   LIG     1     -24.481 -12.391 -16.354  1.00  0.00     0.119 A 
HETATM   15  C   LIG     1     -24.273 -12.952 -17.604  1.00  0.00     0.019 A 
HETATM   16  C   LIG     1     -23.187 -13.805 -17.762  1.00  0.00     0.005 A 
HETATM   17  C   LIG     1     -22.353 -14.068 -16.681  1.00  0.00     0.050 A 
ENDBRANCH  10  12
ENDBRANCH   9  10
ENDBRANCH   8   9
ENDBRANCH   7   8
ENDBRANCH   4   7
BRANCH   1  18
HETATM   18  C   LIG     1     -23.556 -21.628 -15.258  1.00  0.00     0.063 C 
BRANCH  18  19
HETATM   19  C   LIG     1     -24.958 -22.106 -15.591  1.00  0.00     0.153 A 
HETATM   20  S   LIG     1     -25.094 -23.909 -15.386  1.00  0.00    -0.054 SA
HETATM   21  C   LIG     1     -25.629 -24.182 -17.030  1.00  0.00     0.287 A 
HETATM   22  O   LIG     1     -25.911 -25.285 -17.471  1.00  0.00    -0.260 OA
HETATM   23  N   LIG     1     -25.665 -22.985 -17.698  1.00  0.00    -0.287 N 
HETATM   24  C   LIG     1     -25.308 -21.829 -17.036  1.00  0.00     0.239 A 
HETATM   25  H   LIG     1     -25.939 -22.952 -18.674  1.00  0.00     0.172 HD
HETATM   26  O   LIG     1     -25.278 -20.712 -17.539  1.00  0.00    -0.272 OA
ENDBRANCH  18  19
ENDBRANCH   1  18
TORSDOF 7
ENDMDL
MODEL 6
REMARK VINA RESULT:      -7.8      1.308      2.123
REMARK  7 active torsions:
REMARK  status: ('A' for Active; 'I' for Inactive)
REMARK    1  A    between atoms: O_2  and  C_15 
REMARK    2  A    between atoms: O_2  and  C_16 
REMARK    3  A    between atoms: N_5  and  C_14 
REMARK    4  A    between atoms: N_5  and  C_20 
REMARK    5  A    between atoms: C_8  and  C_9 
REMARK    6  A    between atoms: C_9  and  C_10 
REMARK    7  A    between atoms: C_14  and  C_15 
ROOT
HETATM    1  C   LIG     1     -22.268 -12.917 -13.302  1.00  0.00    -0.056 A 
HETATM    2  C   LIG     1     -23.225 -12.486 -12.395  1.00  0.00     0.010 A 
HETATM    3  C   LIG     1     -20.939 -13.055 -12.932  1.00  0.00     0.010 A 
HETATM    4  C   LIG     1     -21.510 -12.319 -10.702  1.00  0.00     0.068 A 
HETATM    5  C   LIG     1     -22.843 -12.185 -11.088  1.00  0.00     0.037 A 
HETATM    6  C   LIG     1     -20.558 -12.754 -11.624  1.00  0.00     0.037 A 
ENDROOT
BRANCH   4   7
HETATM    7  O   LIG     1     -21.137 -12.024  -9.427  1.00  0.00    -0.350 OA
BRANCH   7   8
HETATM    8  C   LIG     1     -21.671 -12.843  -8.389  1.00  0.00     0.195 C 
BRANCH   8   9
HETATM    9  C   LIG     1     -20.708 -13.990  -8.126  1.00  0.00     0.150 C 
BRANCH   9  10
HETATM   10  N   LIG     1     -21.252 -15.243  -8.626  1.00  0.00    -0.368 N 
HETATM   11  C   LIG     1     -20.672 -15.812  -9.836  1.00  0.00     0.151 C 
BRANCH  10  12
HETATM   12  C   LIG     1     -22.309 -15.880  -7.973  1.00  0.00     0.124 A 
HETATM   13  N   LIG     1     -22.068 -16.575  -6.826  1.00  0.00    -0.244 NA
HETATM   14  C   LIG     1     -23.125 -17.173  -6.233  1.00  0.00     0.119 A 
HETATM   15  C   LIG     1     -24.422 -17.118  -6.721  1.00  0.00     0.019 A 
HETATM   16  C   LIG     1     -24.646 -16.403  -7.891  1.00  0.00     0.005 A 
HETATM   17  C   LIG     1     -23.583 -15.774  -8.531  1.00  0.00     0.050 A 
ENDBRANCH  10  12
ENDBRANCH   9  10
ENDBRANCH   8   9
ENDBRANCH   7   8
ENDBRANCH   4   7
BRANCH   1  18
HETATM   18  C   LIG     1     -22.681 -13.243 -14.715  1.00  0.00     0.063 C 
BRANCH  18  19
HETATM   19  C   LIG     1     -23.601 -14.450 -14.773  1.00  0.00     0.153 A 
HETATM   20  S   LIG     1     -22.965 -15.801 -13.732  1.00  0.00    -0.054 SA
HETATM   21  C   LIG     1     -22.917 -16.957 -15.045  1.00  0.00     0.287 A 
HETATM   22  O   LIG     1     -22.566 -18.119 -14.905  1.00  0.00    -0.260 OA
HETATM   23  N   LIG     1     -23.323 -16.345 -16.202  1.00  0.00    -0.287 N 
HETATM   24  C   LIG     1     -23.685 -15.014 -16.173  1.00  0.00     0.239 A 
HETATM   25  H   LIG     1     -23.344 -16.862 -17.075  1.00  0.00     0.172 HD
HETATM   26  O   LIG     1     -24.037 -14.360 -17.148  1.00  0.00    -0.272 OA
ENDBRANCH  18  19
ENDBRANCH   1  18
TORSDOF 7
ENDMDL
MODEL 7
REMARK VINA RESULT:      -7.7      4.690      7.575
REMARK  7 active torsions:
REMARK  status: ('A' for Active; 'I' for Inactive)
REMARK    1  A    between atoms: O_2  and  C_15 
REMARK    2  A    between atoms: O_2  and  C_16 
REMARK    3  A    between atoms: N_5  and  C_14 
REMARK    4  A    between atoms: N_5  and  C_20 
REMARK    5  A    between atoms: C_8  and  C_9 
REMARK    6  A    between atoms: C_9  and  C_10 
REMARK    7  A    between atoms: C_14  and  C_15 
ROOT
HETATM    1  C   LIG     1     -18.987 -16.445 -11.882  1.00  0.00    -0.056 A 
HETATM    2  C   LIG     1     -20.171 -15.876 -11.437  1.00  0.00     0.010 A 
HETATM    3  C   LIG     1     -18.304 -15.920 -12.969  1.00  0.00     0.010 A 
HETATM    4  C   LIG     1     -20.007 -14.220 -13.188  1.00  0.00     0.068 A 
HETATM    5  C   LIG     1     -20.684 -14.758 -12.094  1.00  0.00     0.037 A 
HETATM    6  C   LIG     1     -18.817 -14.802 -13.626  1.00  0.00     0.037 A 
ENDROOT
BRANCH   4   7
HETATM    7  O   LIG     1     -20.507 -13.129 -13.831  1.00  0.00    -0.350 OA
BRANCH   7   8
HETATM    8  C   LIG     1     -21.087 -13.343 -15.117  1.00  0.00     0.195 C 
BRANCH   8   9
HETATM    9  C   LIG     1     -22.592 -13.481 -14.957  1.00  0.00     0.150 C 
BRANCH   9  10
HETATM   10  N   LIG     1     -23.113 -14.499 -15.857  1.00  0.00    -0.368 N 
HETATM   11  C   LIG     1     -23.182 -14.190 -17.280  1.00  0.00     0.151 C 
BRANCH  10  12
HETATM   12  C   LIG     1     -23.547 -15.735 -15.372  1.00  0.00     0.124 A 
HETATM   13  N   LIG     1     -24.858 -16.081 -15.498  1.00  0.00    -0.244 NA
HETATM   14  C   LIG     1     -25.227 -17.288 -15.013  1.00  0.00     0.119 A 
HETATM   15  C   LIG     1     -24.355 -18.178 -14.403  1.00  0.00     0.019 A 
HETATM   16  C   LIG     1     -23.022 -17.804 -14.285  1.00  0.00     0.005 A 
HETATM   17  C   LIG     1     -22.605 -16.570 -14.772  1.00  0.00     0.050 A 
ENDBRANCH  10  12
ENDBRANCH   9  10
ENDBRANCH   8   9
ENDBRANCH   7   8
ENDBRANCH   4   7
BRANCH   1  18
HETATM   18  C   LIG     1     -18.433 -17.652 -11.171  1.00  0.00     0.063 C 
BRANCH  18  19
HETATM   19  C   LIG     1     -19.404 -18.820 -11.196  1.00  0.00     0.153 A 
HETATM   20  S   LIG     1     -18.994 -20.030  -9.900  1.00  0.00    -0.054 SA
HETATM   21  C   LIG     1     -18.834 -21.364 -11.022  1.00  0.00     0.287 A 
HETATM   22  O   LIG     1     -18.571 -22.506 -10.676  1.00  0.00    -0.260 OA
HETATM   23  N   LIG     1     -19.041 -20.909 -12.298  1.00  0.00    -0.287 N 
HETATM   24  C   LIG     1     -19.327 -19.575 -12.503  1.00  0.00     0.239 A 
HETATM   25  H   LIG     1     -18.972 -21.544 -13.087  1.00  0.00     0.172 HD
HETATM   26  O   LIG     1     -19.505 -19.055 -13.599  1.00  0.00    -0.272 OA
ENDBRANCH  18  19
ENDBRANCH   1  18
TORSDOF 7
ENDMDL
MODEL 8
REMARK VINA RESULT:      -7.7      3.672      4.707
REMARK  7 active torsions:
REMARK  status: ('A' for Active; 'I' for Inactive)
REMARK    1  A    between atoms: O_2  and  C_15 
REMARK    2  A    between atoms: O_2  and  C_16 
REMARK    3  A    between atoms: N_5  and  C_14 
REMARK    4  A    between atoms: N_5  and  C_20 
REMARK    5  A    between atoms: C_8  and  C_9 
REMARK    6  A    between atoms: C_9  and  C_10 
REMARK    7  A    between atoms: C_14  and  C_15 
ROOT
HETATM    1  C   LIG     1     -22.182 -13.482 -13.185  1.00  0.00    -0.056 A 
HETATM    2  C   LIG     1     -22.851 -14.250 -12.243  1.00  0.00     0.010 A 
HETATM    3  C   LIG     1     -20.800 -13.373 -13.170  1.00  0.00     0.010 A 
HETATM    4  C   LIG     1     -20.730 -14.821 -11.238  1.00  0.00     0.068 A 
HETATM    5  C   LIG     1     -22.121 -14.922 -11.264  1.00  0.00     0.037 A 
HETATM    6  C   LIG     1     -20.070 -14.046 -12.191  1.00  0.00     0.037 A 
ENDROOT
BRANCH   4   7
HETATM    7  O   LIG     1     -20.016 -15.477 -10.282  1.00  0.00    -0.350 OA
BRANCH   7   8
HETATM    8  C   LIG     1     -20.071 -16.902 -10.296  1.00  0.00     0.195 C 
BRANCH   8   9
HETATM    9  C   LIG     1     -18.748 -17.437 -10.821  1.00  0.00     0.150 C 
BRANCH   9  10
HETATM   10  N   LIG     1     -18.955 -18.231 -12.022  1.00  0.00    -0.368 N 
HETATM   11  C   LIG     1     -19.012 -17.540 -13.304  1.00  0.00     0.151 C 
BRANCH  10  12
HETATM   12  C   LIG     1     -19.108 -19.618 -11.950  1.00  0.00     0.124 A 
HETATM   13  N   LIG     1     -19.461 -20.312 -13.068  1.00  0.00    -0.244 NA
HETATM   14  C   LIG     1     -19.595 -21.651 -12.946  1.00  0.00     0.119 A 
HETATM   15  C   LIG     1     -19.396 -22.346 -11.763  1.00  0.00     0.019 A 
HETATM   16  C   LIG     1     -19.036 -21.619 -10.635  1.00  0.00     0.005 A 
HETATM   17  C   LIG     1     -18.889 -20.239 -10.721  1.00  0.00     0.050 A 
ENDBRANCH  10  12
ENDBRANCH   9  10
ENDBRANCH   8   9
ENDBRANCH   7   8
ENDBRANCH   4   7
BRANCH   1  18
HETATM   18  C   LIG     1     -22.971 -12.755 -14.243  1.00  0.00     0.063 C 
BRANCH  18  19
HETATM   19  C   LIG     1     -23.770 -13.711 -15.112  1.00  0.00     0.153 A 
HETATM   20  S   LIG     1     -22.708 -14.481 -16.374  1.00  0.00    -0.054 SA
HETATM   21  C   LIG     1     -23.693 -13.935 -17.714  1.00  0.00     0.287 A 
HETATM   22  O   LIG     1     -23.446 -14.200 -18.881  1.00  0.00    -0.260 OA
HETATM   23  N   LIG     1     -24.736 -13.187 -17.234  1.00  0.00    -0.287 N 
HETATM   24  C   LIG     1     -24.857 -12.988 -15.874  1.00  0.00     0.239 A 
HETATM   25  H   LIG     1     -25.406 -12.772 -17.873  1.00  0.00     0.172 HD
HETATM   26  O   LIG     1     -25.732 -12.318 -15.337  1.00  0.00    -0.272 OA
ENDBRANCH  18  19
ENDBRANCH   1  18
TORSDOF 7
ENDMDL
MODEL 9
REMARK VINA RESULT:      -7.6      5.110      7.041
REMARK  7 active torsions:
REMARK  status: ('A' for Active; 'I' for Inactive)
REMARK    1  A    between atoms: O_2  and  C_15 
REMARK    2  A    between atoms: O_2  and  C_16 
REMARK    3  A    between atoms: N_5  and  C_14 
REMARK    4  A    between atoms: N_5  and  C_20 
REMARK    5  A    between atoms: C_8  and  C_9 
REMARK    6  A    between atoms: C_9  and  C_10 
REMARK    7  A    between atoms: C_14  and  C_15 
ROOT
HETATM    1  C   LIG     1     -24.303 -19.016 -14.832  1.00  0.00    -0.056 A 
HETATM    2  C   LIG     1     -25.190 -17.966 -15.026  1.00  0.00     0.010 A 
HETATM    3  C   LIG     1     -22.939 -18.790 -14.720  1.00  0.00     0.010 A 
HETATM    4  C   LIG     1     -23.332 -16.423 -15.000  1.00  0.00     0.068 A 
HETATM    5  C   LIG     1     -24.701 -16.663 -15.111  1.00  0.00     0.037 A 
HETATM    6  C   LIG     1     -22.451 -17.487 -14.804  1.00  0.00     0.037 A 
ENDROOT
BRANCH   4   7
HETATM    7  O   LIG     1     -22.854 -15.151 -15.083  1.00  0.00    -0.350 OA
BRANCH   7   8
HETATM    8  C   LIG     1     -21.513 -14.932 -14.648  1.00  0.00     0.195 C 
BRANCH   8   9
HETATM    9  C   LIG     1     -21.318 -13.446 -14.393  1.00  0.00     0.150 C 
BRANCH   9  10
HETATM   10  N   LIG     1     -20.705 -13.224 -13.093  1.00  0.00    -0.368 N 
HETATM   11  C   LIG     1     -19.250 -13.249 -13.004  1.00  0.00     0.151 C 
BRANCH  10  12
HETATM   12  C   LIG     1     -21.485 -13.004 -11.956  1.00  0.00     0.124 A 
HETATM   13  N   LIG     1     -21.146 -13.607 -10.783  1.00  0.00    -0.244 NA
HETATM   14  C   LIG     1     -21.934 -13.361  -9.712  1.00  0.00     0.119 A 
HETATM   15  C   LIG     1     -23.052 -12.541  -9.744  1.00  0.00     0.019 A 
HETATM   16  C   LIG     1     -23.380 -11.935 -10.951  1.00  0.00     0.005 A 
HETATM   17  C   LIG     1     -22.594 -12.165 -12.075  1.00  0.00     0.050 A 
ENDBRANCH  10  12
ENDBRANCH   9  10
ENDBRANCH   8   9
ENDBRANCH   7   8
ENDBRANCH   4   7
BRANCH   1  18
HETATM   18  C   LIG     1     -24.831 -20.424 -14.740  1.00  0.00     0.063 C 
BRANCH  18  19
HETATM   19  C   LIG     1     -24.180 -21.342 -15.760  1.00  0.00     0.153 A 
HETATM   20  S   LIG     1     -25.438 -22.245 -16.715  1.00  0.00    -0.054 SA
HETATM   21  C   LIG     1     -24.806 -23.822 -16.293  1.00  0.00     0.287 A 
HETATM   22  O   LIG     1     -25.282 -24.869 -16.704  1.00  0.00    -0.260 OA
HETATM   23  N   LIG     1     -23.734 -23.669 -15.453  1.00  0.00    -0.287 N 
HETATM   24  C   LIG     1     -23.334 -22.400 -15.090  1.00  0.00     0.239 A 
HETATM   25  H   LIG     1     -23.248 -24.483 -15.090  1.00  0.00     0.172 HD
HETATM   26  O   LIG     1     -22.408 -22.147 -14.327  1.00  0.00    -0.272 OA
ENDBRANCH  18  19
ENDBRANCH   1  18
TORSDOF 7
ENDMDL
