MODEL 1
REMARK VINA RESULT:      -9.3      0.000      0.000
REMARK  1 active torsions:
REMARK  status: ('A' for Active; 'I' for Inactive)
REMARK    1  A    between atoms: C_7  and  C_10 
ROOT
HETATM    1 CL   LIG     1     -18.331 -18.440  -9.489  1.00  0.00    -0.084 Cl
HETATM    2  O   LIG     1     -22.448 -11.798 -11.605  1.00  0.00    -0.271 OA
HETATM    3  N   LIG     1     -21.416 -13.875 -11.829  1.00  0.00    -0.320 N 
HETATM    4  N   LIG     1     -22.038 -13.434  -8.890  1.00  0.00    -0.279 NA
HETATM    5  C   LIG     1     -20.868 -15.356  -9.885  1.00  0.00     0.022 A 
HETATM    6  C   LIG     1     -20.721 -14.986 -11.239  1.00  0.00     0.049 A 
HETATM    7  C   LIG     1     -21.864 -14.709  -8.979  1.00  0.00     0.074 C 
HETATM    8  C   LIG     1     -21.224 -12.583  -9.733  1.00  0.00     0.252 C 
HETATM    9  C   LIG     1     -21.771 -12.714 -11.132  1.00  0.00     0.243 C 
HETATM   10  C   LIG     1     -20.113 -16.414  -9.348  1.00  0.00     0.040 A 
HETATM   11  C   LIG     1     -19.857 -15.764 -12.036  1.00  0.00     0.032 A 
HETATM   12  C   LIG     1     -21.715 -13.933 -13.260  1.00  0.00     0.159 C 
HETATM   13  C   LIG     1     -19.243 -17.143 -10.154  1.00  0.00     0.035 A 
HETATM   14  C   LIG     1     -19.125 -16.826 -11.500  1.00  0.00     0.026 A 
ENDROOT
BRANCH   7  15
HETATM   15  C   LIG     1     -22.734 -15.573  -8.130  1.00  0.00    -0.007 A 
HETATM   16  C   LIG     1     -24.071 -15.744  -8.468  1.00  0.00     0.014 A 
HETATM   17  C   LIG     1     -24.885 -16.553  -7.674  1.00  0.00     0.001 A 
HETATM   18  C   LIG     1     -24.355 -17.184  -6.549  1.00  0.00     0.000 A 
HETATM   19  C   LIG     1     -23.012 -17.007  -6.217  1.00  0.00     0.001 A 
HETATM   20  C   LIG     1     -22.198 -16.198  -7.011  1.00  0.00     0.014 A 
ENDBRANCH   7  15
TORSDOF 1
ENDMDL
