MODEL 1
REMARK VINA RESULT:      -6.3      0.000      0.000
REMARK  8 active torsions:
REMARK  status: ('A' for Active; 'I' for Inactive)
REMARK    1  A    between atoms: O_2  and  C_7 
REMARK    2  A    between atoms: O_2  and  C_11 
REMARK    3  A    between atoms: O_3  and  C_9 
REMARK    4  A    between atoms: O_3  and  C_19 
REMARK    5  A    between atoms: N_6  and  C_8 
REMARK       I    between atoms: N_6  and  C_19 
REMARK    6  A    between atoms: C_8  and  C_10 
REMARK    7  A    between atoms: C_8  and  C_11 
REMARK    8  A    between atoms: C_10  and  C_18 
ROOT
HETATM    1  C   LIG     1     -21.967 -15.808 -14.162  1.00  0.00     0.187 C 
ENDROOT
BRANCH   1   2
HETATM    2  N   LIG     1     -22.114 -15.018 -15.358  1.00  0.00    -0.323 N 
HETATM    3  C   LIG     1     -22.384 -13.663 -15.356  1.00  0.00     0.362 C 
HETATM    4  O   LIG     1     -22.530 -12.965 -14.357  1.00  0.00    -0.238 OA
HETATM    5  H   LIG     1     -22.025 -15.481 -16.257  1.00  0.00     0.165 HD
BRANCH   3   6
HETATM    6  O   LIG     1     -22.465 -13.205 -16.641  1.00  0.00    -0.294 OA
BRANCH   6   7
HETATM    7  C   LIG     1     -23.784 -13.125 -17.193  1.00  0.00     0.061 C 
HETATM    8  C   LIG     1     -24.775 -13.676 -16.168  1.00  0.00     0.046 C 
HETATM    9  C   LIG     1     -23.803 -13.972 -18.464  1.00  0.00     0.046 C 
HETATM   10  C   LIG     1     -24.090 -11.663 -17.516  1.00  0.00     0.046 C 
ENDBRANCH   6   7
ENDBRANCH   3   6
ENDBRANCH   1   2
BRANCH   1  11
HETATM   11  C   LIG     1     -23.180 -16.723 -13.954  1.00  0.00     0.045 C 
BRANCH  11  12
HETATM   12  C   LIG     1     -23.767 -17.273 -15.260  1.00  0.00     0.082 C 
HETATM   13  I   LIG     1     -24.199 -19.365 -15.063  1.00  0.00    -0.090 I 
ENDBRANCH  11  12
ENDBRANCH   1  11
BRANCH   1  14
HETATM   14  C   LIG     1     -20.661 -16.590 -14.136  1.00  0.00     0.282 C 
HETATM   15  O   LIG     1     -20.613 -17.794 -13.907  1.00  0.00    -0.263 OA
BRANCH  14  16
HETATM   16  O   LIG     1     -19.583 -15.798 -14.398  1.00  0.00    -0.310 OA
BRANCH  16  17
HETATM   17  C   LIG     1     -18.864 -15.327 -13.254  1.00  0.00     0.060 C 
HETATM   18  C   LIG     1     -19.695 -14.245 -12.568  1.00  0.00     0.045 C 
HETATM   19  C   LIG     1     -17.538 -14.755 -13.747  1.00  0.00     0.045 C 
HETATM   20  C   LIG     1     -18.623 -16.507 -12.313  1.00  0.00     0.045 C 
ENDBRANCH  16  17
ENDBRANCH  14  16
ENDBRANCH   1  14
TORSDOF 8
ENDMDL
MODEL 2
REMARK VINA RESULT:      -6.3      4.485      6.221
REMARK  8 active torsions:
REMARK  status: ('A' for Active; 'I' for Inactive)
REMARK    1  A    between atoms: O_2  and  C_7 
REMARK    2  A    between atoms: O_2  and  C_11 
REMARK    3  A    between atoms: O_3  and  C_9 
REMARK    4  A    between atoms: O_3  and  C_19 
REMARK    5  A    between atoms: N_6  and  C_8 
REMARK       I    between atoms: N_6  and  C_19 
REMARK    6  A    between atoms: C_8  and  C_10 
REMARK    7  A    between atoms: C_8  and  C_11 
REMARK    8  A    between atoms: C_10  and  C_18 
ROOT
HETATM    1  C   LIG     1     -20.565 -16.874  -9.921  1.00  0.00     0.187 C 
ENDROOT
BRANCH   1   2
HETATM    2  N   LIG     1     -20.504 -15.660 -10.695  1.00  0.00    -0.323 N 
HETATM    3  C   LIG     1     -21.348 -15.377 -11.751  1.00  0.00     0.362 C 
HETATM    4  O   LIG     1     -22.247 -16.106 -12.162  1.00  0.00    -0.238 OA
HETATM    5  H   LIG     1     -19.793 -14.974 -10.461  1.00  0.00     0.165 HD
BRANCH   3   6
HETATM    6  O   LIG     1     -21.038 -14.156 -12.278  1.00  0.00    -0.294 OA
BRANCH   6   7
HETATM    7  C   LIG     1     -20.107 -14.163 -13.366  1.00  0.00     0.061 C 
HETATM    8  C   LIG     1     -19.681 -15.607 -13.631  1.00  0.00     0.046 C 
HETATM    9  C   LIG     1     -18.905 -13.318 -12.948  1.00  0.00     0.046 C 
HETATM   10  C   LIG     1     -20.787 -13.561 -14.594  1.00  0.00     0.046 C 
ENDBRANCH   6   7
ENDBRANCH   3   6
ENDBRANCH   1   2
BRANCH   1  11
HETATM   11  C   LIG     1     -19.177 -17.510  -9.782  1.00  0.00     0.045 C 
BRANCH  11  12
HETATM   12  C   LIG     1     -19.154 -19.012 -10.089  1.00  0.00     0.082 C 
HETATM   13  I   LIG     1     -19.218 -20.148  -8.270  1.00  0.00    -0.090 I 
ENDBRANCH  11  12
ENDBRANCH   1  11
BRANCH   1  14
HETATM   14  C   LIG     1     -21.228 -16.670  -8.566  1.00  0.00     0.282 C 
HETATM   15  O   LIG     1     -20.795 -15.888  -7.727  1.00  0.00    -0.263 OA
BRANCH  14  16
HETATM   16  O   LIG     1     -22.338 -17.447  -8.415  1.00  0.00    -0.310 OA
BRANCH  16  17
HETATM   17  C   LIG     1     -23.585 -16.747  -8.365  1.00  0.00     0.060 C 
HETATM   18  C   LIG     1     -23.319 -15.260  -8.592  1.00  0.00     0.045 C 
HETATM   19  C   LIG     1     -24.188 -16.980  -6.982  1.00  0.00     0.045 C 
HETATM   20  C   LIG     1     -24.502 -17.308  -9.452  1.00  0.00     0.045 C 
ENDBRANCH  16  17
ENDBRANCH  14  16
ENDBRANCH   1  14
TORSDOF 8
ENDMDL
MODEL 3
REMARK VINA RESULT:      -6.2      4.464      6.628
REMARK  8 active torsions:
REMARK  status: ('A' for Active; 'I' for Inactive)
REMARK    1  A    between atoms: O_2  and  C_7 
REMARK    2  A    between atoms: O_2  and  C_11 
REMARK    3  A    between atoms: O_3  and  C_9 
REMARK    4  A    between atoms: O_3  and  C_19 
REMARK    5  A    between atoms: N_6  and  C_8 
REMARK       I    between atoms: N_6  and  C_19 
REMARK    6  A    between atoms: C_8  and  C_10 
REMARK    7  A    between atoms: C_8  and  C_11 
REMARK    8  A    between atoms: C_10  and  C_18 
ROOT
HETATM    1  C   LIG     1     -19.790 -16.547 -10.497  1.00  0.00     0.187 C 
ENDROOT
BRANCH   1   2
HETATM    2  N   LIG     1     -20.980 -17.110  -9.912  1.00  0.00    -0.323 N 
HETATM    3  C   LIG     1     -21.377 -16.886  -8.608  1.00  0.00     0.362 C 
HETATM    4  O   LIG     1     -20.782 -16.190  -7.790  1.00  0.00    -0.238 OA
HETATM    5  H   LIG     1     -21.560 -17.716 -10.484  1.00  0.00     0.165 HD
BRANCH   3   6
HETATM    6  O   LIG     1     -22.540 -17.556  -8.355  1.00  0.00    -0.294 OA
BRANCH   6   7
HETATM    7  C   LIG     1     -23.730 -16.759  -8.342  1.00  0.00     0.061 C 
HETATM    8  C   LIG     1     -24.415 -16.930  -6.986  1.00  0.00     0.046 C 
HETATM    9  C   LIG     1     -24.633 -17.262  -9.466  1.00  0.00     0.046 C 
HETATM   10  C   LIG     1     -23.342 -15.300  -8.576  1.00  0.00     0.046 C 
ENDBRANCH   6   7
ENDBRANCH   3   6
ENDBRANCH   1   2
BRANCH   1  11
HETATM   11  C   LIG     1     -18.631 -17.551 -10.462  1.00  0.00     0.045 C 
BRANCH  11  12
HETATM   12  C   LIG     1     -19.077 -19.010 -10.615  1.00  0.00     0.082 C 
HETATM   13  I   LIG     1     -19.073 -19.997  -8.710  1.00  0.00    -0.090 I 
ENDBRANCH  11  12
ENDBRANCH   1  11
BRANCH   1  14
HETATM   14  C   LIG     1     -20.028 -16.009 -11.901  1.00  0.00     0.282 C 
HETATM   15  O   LIG     1     -20.471 -16.703 -12.810  1.00  0.00    -0.263 OA
BRANCH  14  16
HETATM   16  O   LIG     1     -19.695 -14.692 -12.010  1.00  0.00    -0.310 OA
BRANCH  16  17
HETATM   17  C   LIG     1     -20.749 -13.817 -12.423  1.00  0.00     0.060 C 
HETATM   18  C   LIG     1     -20.669 -13.641 -13.938  1.00  0.00     0.045 C 
HETATM   19  C   LIG     1     -20.540 -12.480 -11.715  1.00  0.00     0.045 C 
HETATM   20  C   LIG     1     -22.084 -14.437 -12.015  1.00  0.00     0.045 C 
ENDBRANCH  16  17
ENDBRANCH  14  16
ENDBRANCH   1  14
TORSDOF 8
ENDMDL
MODEL 4
REMARK VINA RESULT:      -6.2      2.701      4.097
REMARK  8 active torsions:
REMARK  status: ('A' for Active; 'I' for Inactive)
REMARK    1  A    between atoms: O_2  and  C_7 
REMARK    2  A    between atoms: O_2  and  C_11 
REMARK    3  A    between atoms: O_3  and  C_9 
REMARK    4  A    between atoms: O_3  and  C_19 
REMARK    5  A    between atoms: N_6  and  C_8 
REMARK       I    between atoms: N_6  and  C_19 
REMARK    6  A    between atoms: C_8  and  C_10 
REMARK    7  A    between atoms: C_8  and  C_11 
REMARK    8  A    between atoms: C_10  and  C_18 
ROOT
HETATM    1  C   LIG     1     -21.164 -13.459 -13.205  1.00  0.00     0.187 C 
ENDROOT
BRANCH   1   2
HETATM    2  N   LIG     1     -21.583 -12.930 -14.478  1.00  0.00    -0.323 N 
HETATM    3  C   LIG     1     -21.986 -13.714 -15.542  1.00  0.00     0.362 C 
HETATM    4  O   LIG     1     -22.040 -14.941 -15.545  1.00  0.00    -0.238 OA
HETATM    5  H   LIG     1     -21.575 -11.923 -14.610  1.00  0.00     0.165 HD
BRANCH   3   6
HETATM    6  O   LIG     1     -22.320 -12.920 -16.602  1.00  0.00    -0.294 OA
BRANCH   6   7
HETATM    7  C   LIG     1     -23.689 -12.977 -17.018  1.00  0.00     0.061 C 
HETATM    8  C   LIG     1     -23.811 -13.995 -18.152  1.00  0.00     0.046 C 
HETATM    9  C   LIG     1     -24.080 -11.583 -17.505  1.00  0.00     0.046 C 
HETATM   10  C   LIG     1     -24.546 -13.389 -15.822  1.00  0.00     0.046 C 
ENDBRANCH   6   7
ENDBRANCH   3   6
ENDBRANCH   1   2
BRANCH   1  11
HETATM   11  C   LIG     1     -19.724 -13.040 -12.882  1.00  0.00     0.045 C 
BRANCH  11  12
HETATM   12  C   LIG     1     -18.663 -13.873 -13.612  1.00  0.00     0.082 C 
HETATM   13  I   LIG     1     -18.953 -15.963 -13.221  1.00  0.00    -0.090 I 
ENDBRANCH  11  12
ENDBRANCH   1  11
BRANCH   1  14
HETATM   14  C   LIG     1     -22.121 -13.096 -12.078  1.00  0.00     0.282 C 
HETATM   15  O   LIG     1     -23.242 -12.642 -12.280  1.00  0.00    -0.263 OA
BRANCH  14  16
HETATM   16  O   LIG     1     -21.583 -13.341 -10.850  1.00  0.00    -0.310 OA
BRANCH  16  17
HETATM   17  C   LIG     1     -21.979 -14.569 -10.231  1.00  0.00     0.060 C 
HETATM   18  C   LIG     1     -22.530 -15.501 -11.308  1.00  0.00     0.045 C 
HETATM   19  C   LIG     1     -23.059 -14.238  -9.203  1.00  0.00     0.045 C 
HETATM   20  C   LIG     1     -20.758 -15.185  -9.548  1.00  0.00     0.045 C 
ENDBRANCH  16  17
ENDBRANCH  14  16
ENDBRANCH   1  14
TORSDOF 8
ENDMDL
MODEL 5
REMARK VINA RESULT:      -6.1      4.650      6.811
REMARK  8 active torsions:
REMARK  status: ('A' for Active; 'I' for Inactive)
REMARK    1  A    between atoms: O_2  and  C_7 
REMARK    2  A    between atoms: O_2  and  C_11 
REMARK    3  A    between atoms: O_3  and  C_9 
REMARK    4  A    between atoms: O_3  and  C_19 
REMARK    5  A    between atoms: N_6  and  C_8 
REMARK       I    between atoms: N_6  and  C_19 
REMARK    6  A    between atoms: C_8  and  C_10 
REMARK    7  A    between atoms: C_8  and  C_11 
REMARK    8  A    between atoms: C_10  and  C_18 
ROOT
HETATM    1  C   LIG     1     -21.454 -14.734  -9.671  1.00  0.00     0.187 C 
ENDROOT
BRANCH   1   2
HETATM    2  N   LIG     1     -21.249 -15.752 -10.669  1.00  0.00    -0.323 N 
HETATM    3  C   LIG     1     -20.447 -15.588 -11.782  1.00  0.00     0.362 C 
HETATM    4  O   LIG     1     -19.814 -14.575 -12.064  1.00  0.00    -0.238 OA
HETATM    5  H   LIG     1     -21.727 -16.641 -10.558  1.00  0.00     0.165 HD
BRANCH   3   6
HETATM    6  O   LIG     1     -20.459 -16.729 -12.534  1.00  0.00    -0.294 OA
BRANCH   6   7
HETATM    7  C   LIG     1     -19.186 -17.352 -12.743  1.00  0.00     0.061 C 
HETATM    8  C   LIG     1     -18.393 -17.286 -11.438  1.00  0.00     0.046 C 
HETATM    9  C   LIG     1     -18.470 -16.577 -13.846  1.00  0.00     0.046 C 
HETATM   10  C   LIG     1     -19.418 -18.802 -13.167  1.00  0.00     0.046 C 
ENDBRANCH   6   7
ENDBRANCH   3   6
ENDBRANCH   1   2
BRANCH   1  11
HETATM   11  C   LIG     1     -22.693 -13.889  -9.992  1.00  0.00     0.045 C 
BRANCH  11  12
HETATM   12  C   LIG     1     -22.367 -12.547 -10.658  1.00  0.00     0.082 C 
HETATM   13  I   LIG     1     -23.016 -12.549 -12.702  1.00  0.00    -0.090 I 
ENDBRANCH  11  12
ENDBRANCH   1  11
BRANCH   1  14
HETATM   14  C   LIG     1     -21.511 -15.303  -8.260  1.00  0.00     0.282 C 
HETATM   15  O   LIG     1     -20.505 -15.540  -7.600  1.00  0.00    -0.263 OA
BRANCH  14  16
HETATM   16  O   LIG     1     -22.792 -15.503  -7.839  1.00  0.00    -0.310 OA
BRANCH  16  17
HETATM   17  C   LIG     1     -23.220 -16.867  -7.780  1.00  0.00     0.060 C 
HETATM   18  C   LIG     1     -21.998 -17.769  -7.942  1.00  0.00     0.045 C 
HETATM   19  C   LIG     1     -24.208 -17.089  -8.923  1.00  0.00     0.045 C 
HETATM   20  C   LIG     1     -23.898 -17.106  -6.431  1.00  0.00     0.045 C 
ENDBRANCH  16  17
ENDBRANCH  14  16
ENDBRANCH   1  14
TORSDOF 8
ENDMDL
MODEL 6
REMARK VINA RESULT:      -6.1      3.055      4.451
REMARK  8 active torsions:
REMARK  status: ('A' for Active; 'I' for Inactive)
REMARK    1  A    between atoms: O_2  and  C_7 
REMARK    2  A    between atoms: O_2  and  C_11 
REMARK    3  A    between atoms: O_3  and  C_9 
REMARK    4  A    between atoms: O_3  and  C_19 
REMARK    5  A    between atoms: N_6  and  C_8 
REMARK       I    between atoms: N_6  and  C_19 
REMARK    6  A    between atoms: C_8  and  C_10 
REMARK    7  A    between atoms: C_8  and  C_11 
REMARK    8  A    between atoms: C_10  and  C_18 
ROOT
HETATM    1  C   LIG     1     -20.817 -13.429 -12.810  1.00  0.00     0.187 C 
ENDROOT
BRANCH   1   2
HETATM    2  N   LIG     1     -21.881 -12.926 -13.640  1.00  0.00    -0.323 N 
HETATM    3  C   LIG     1     -22.926 -13.700 -14.104  1.00  0.00     0.362 C 
HETATM    4  O   LIG     1     -23.086 -14.896 -13.877  1.00  0.00    -0.238 OA
HETATM    5  H   LIG     1     -21.862 -11.947 -13.911  1.00  0.00     0.165 HD
BRANCH   3   6
HETATM    6  O   LIG     1     -23.768 -12.937 -14.863  1.00  0.00    -0.294 OA
BRANCH   6   7
HETATM    7  C   LIG     1     -23.861 -13.295 -16.246  1.00  0.00     0.061 C 
HETATM    8  C   LIG     1     -24.238 -12.049 -17.047  1.00  0.00     0.046 C 
HETATM    9  C   LIG     1     -24.946 -14.363 -16.373  1.00  0.00     0.046 C 
HETATM   10  C   LIG     1     -22.509 -13.845 -16.699  1.00  0.00     0.046 C 
ENDBRANCH   6   7
ENDBRANCH   3   6
ENDBRANCH   1   2
BRANCH   1  11
HETATM   11  C   LIG     1     -19.460 -13.294 -13.512  1.00  0.00     0.045 C 
BRANCH  11  12
HETATM   12  C   LIG     1     -18.456 -14.387 -13.126  1.00  0.00     0.082 C 
HETATM   13  I   LIG     1     -19.232 -16.325 -13.623  1.00  0.00    -0.090 I 
ENDBRANCH  11  12
ENDBRANCH   1  11
BRANCH   1  14
HETATM   14  C   LIG     1     -20.801 -12.789 -11.428  1.00  0.00     0.282 C 
HETATM   15  O   LIG     1     -20.652 -11.584 -11.257  1.00  0.00    -0.263 OA
BRANCH  14  16
HETATM   16  O   LIG     1     -20.973 -13.708 -10.436  1.00  0.00    -0.310 OA
BRANCH  16  17
HETATM   17  C   LIG     1     -22.067 -13.463  -9.546  1.00  0.00     0.060 C 
HETATM   18  C   LIG     1     -21.514 -12.905  -8.236  1.00  0.00     0.045 C 
HETATM   19  C   LIG     1     -22.772 -14.796  -9.307  1.00  0.00     0.045 C 
HETATM   20  C   LIG     1     -23.017 -12.464 -10.206  1.00  0.00     0.045 C 
ENDBRANCH  16  17
ENDBRANCH  14  16
ENDBRANCH   1  14
TORSDOF 8
ENDMDL
MODEL 7
REMARK VINA RESULT:      -6.1      2.811      3.564
REMARK  8 active torsions:
REMARK  status: ('A' for Active; 'I' for Inactive)
REMARK    1  A    between atoms: O_2  and  C_7 
REMARK    2  A    between atoms: O_2  and  C_11 
REMARK    3  A    between atoms: O_3  and  C_9 
REMARK    4  A    between atoms: O_3  and  C_19 
REMARK    5  A    between atoms: N_6  and  C_8 
REMARK       I    between atoms: N_6  and  C_19 
REMARK    6  A    between atoms: C_8  and  C_10 
REMARK    7  A    between atoms: C_8  and  C_11 
REMARK    8  A    between atoms: C_10  and  C_18 
ROOT
HETATM    1  C   LIG     1     -22.390 -14.561 -12.728  1.00  0.00     0.187 C 
ENDROOT
BRANCH   1   2
HETATM    2  N   LIG     1     -22.308 -14.200 -14.121  1.00  0.00    -0.323 N 
HETATM    3  C   LIG     1     -22.957 -13.114 -14.673  1.00  0.00     0.362 C 
HETATM    4  O   LIG     1     -23.675 -12.325 -14.066  1.00  0.00    -0.238 OA
HETATM    5  H   LIG     1     -21.749 -14.782 -14.738  1.00  0.00     0.165 HD
BRANCH   3   6
HETATM    6  O   LIG     1     -22.682 -13.040 -16.010  1.00  0.00    -0.294 OA
BRANCH   6   7
HETATM    7  C   LIG     1     -23.806 -13.166 -16.887  1.00  0.00     0.061 C 
HETATM    8  C   LIG     1     -24.966 -13.784 -16.106  1.00  0.00     0.046 C 
HETATM    9  C   LIG     1     -23.391 -14.078 -18.040  1.00  0.00     0.046 C 
HETATM   10  C   LIG     1     -24.178 -11.778 -17.406  1.00  0.00     0.046 C 
ENDBRANCH   6   7
ENDBRANCH   3   6
ENDBRANCH   1   2
BRANCH   1  11
HETATM   11  C   LIG     1     -22.282 -16.080 -12.545  1.00  0.00     0.045 C 
BRANCH  11  12
HETATM   12  C   LIG     1     -21.500 -16.780 -13.664  1.00  0.00     0.082 C 
HETATM   13  I   LIG     1     -19.527 -17.287 -12.993  1.00  0.00    -0.090 I 
ENDBRANCH  11  12
ENDBRANCH   1  11
BRANCH   1  14
HETATM   14  C   LIG     1     -21.376 -13.817 -11.871  1.00  0.00     0.282 C 
HETATM   15  O   LIG     1     -20.686 -12.901 -12.305  1.00  0.00    -0.263 OA
BRANCH  14  16
HETATM   16  O   LIG     1     -21.339 -14.290 -10.593  1.00  0.00    -0.310 OA
BRANCH  16  17
HETATM   17  C   LIG     1     -22.167 -13.599  -9.651  1.00  0.00     0.060 C 
HETATM   18  C   LIG     1     -23.112 -14.608  -9.002  1.00  0.00     0.045 C 
HETATM   19  C   LIG     1     -22.955 -12.542 -10.420  1.00  0.00     0.045 C 
HETATM   20  C   LIG     1     -21.268 -12.943  -8.604  1.00  0.00     0.045 C 
ENDBRANCH  16  17
ENDBRANCH  14  16
ENDBRANCH   1  14
TORSDOF 8
ENDMDL
MODEL 8
REMARK VINA RESULT:      -5.9      2.519      3.046
REMARK  8 active torsions:
REMARK  status: ('A' for Active; 'I' for Inactive)
REMARK    1  A    between atoms: O_2  and  C_7 
REMARK    2  A    between atoms: O_2  and  C_11 
REMARK    3  A    between atoms: O_3  and  C_9 
REMARK    4  A    between atoms: O_3  and  C_19 
REMARK    5  A    between atoms: N_6  and  C_8 
REMARK       I    between atoms: N_6  and  C_19 
REMARK    6  A    between atoms: C_8  and  C_10 
REMARK    7  A    between atoms: C_8  and  C_11 
REMARK    8  A    between atoms: C_10  and  C_18 
ROOT
HETATM    1  C   LIG     1     -21.075 -14.864 -13.242  1.00  0.00     0.187 C 
ENDROOT
BRANCH   1   2
HETATM    2  N   LIG     1     -22.175 -14.169 -13.861  1.00  0.00    -0.323 N 
HETATM    3  C   LIG     1     -22.057 -13.409 -15.008  1.00  0.00     0.362 C 
HETATM    4  O   LIG     1     -21.022 -13.229 -15.643  1.00  0.00    -0.238 OA
HETATM    5  H   LIG     1     -23.091 -14.230 -13.426  1.00  0.00     0.165 HD
BRANCH   3   6
HETATM    6  O   LIG     1     -23.272 -12.881 -15.341  1.00  0.00    -0.294 OA
BRANCH   6   7
HETATM    7  C   LIG     1     -23.853 -13.369 -16.557  1.00  0.00     0.061 C 
HETATM    8  C   LIG     1     -25.180 -14.051 -16.222  1.00  0.00     0.046 C 
HETATM    9  C   LIG     1     -22.874 -14.370 -17.165  1.00  0.00     0.046 C 
HETATM   10  C   LIG     1     -24.071 -12.187 -17.501  1.00  0.00     0.046 C 
ENDBRANCH   6   7
ENDBRANCH   3   6
ENDBRANCH   1   2
BRANCH   1  11
HETATM   11  C   LIG     1     -21.045 -14.612 -11.730  1.00  0.00     0.045 C 
BRANCH  11  12
HETATM   12  C   LIG     1     -22.437 -14.522 -11.093  1.00  0.00     0.082 C 
HETATM   13  I   LIG     1     -22.508 -12.915  -9.674  1.00  0.00    -0.090 I 
ENDBRANCH  11  12
ENDBRANCH   1  11
BRANCH   1  14
HETATM   14  C   LIG     1     -21.069 -16.352 -13.565  1.00  0.00     0.282 C 
HETATM   15  O   LIG     1     -21.490 -16.803 -14.625  1.00  0.00    -0.263 OA
BRANCH  14  16
HETATM   16  O   LIG     1     -20.546 -17.095 -12.549  1.00  0.00    -0.310 OA
BRANCH  16  17
HETATM   17  C   LIG     1     -19.202 -17.549 -12.739  1.00  0.00     0.060 C 
HETATM   18  C   LIG     1     -18.550 -16.699 -13.828  1.00  0.00     0.045 C 
HETATM   19  C   LIG     1     -19.267 -19.013 -13.166  1.00  0.00     0.045 C 
HETATM   20  C   LIG     1     -18.450 -17.409 -11.416  1.00  0.00     0.045 C 
ENDBRANCH  16  17
ENDBRANCH  14  16
ENDBRANCH   1  14
TORSDOF 8
ENDMDL
MODEL 9
REMARK VINA RESULT:      -5.9      2.603      6.030
REMARK  8 active torsions:
REMARK  status: ('A' for Active; 'I' for Inactive)
REMARK    1  A    between atoms: O_2  and  C_7 
REMARK    2  A    between atoms: O_2  and  C_11 
REMARK    3  A    between atoms: O_3  and  C_9 
REMARK    4  A    between atoms: O_3  and  C_19 
REMARK    5  A    between atoms: N_6  and  C_8 
REMARK       I    between atoms: N_6  and  C_19 
REMARK    6  A    between atoms: C_8  and  C_10 
REMARK    7  A    between atoms: C_8  and  C_11 
REMARK    8  A    between atoms: C_10  and  C_18 
ROOT
HETATM    1  C   LIG     1     -22.079 -13.895 -13.897  1.00  0.00     0.187 C 
ENDROOT
BRANCH   1   2
HETATM    2  N   LIG     1     -22.608 -13.917 -12.558  1.00  0.00    -0.323 N 
HETATM    3  C   LIG     1     -22.107 -13.155 -11.520  1.00  0.00     0.362 C 
HETATM    4  O   LIG     1     -21.163 -12.374 -11.598  1.00  0.00    -0.238 OA
HETATM    5  H   LIG     1     -23.390 -14.533 -12.357  1.00  0.00     0.165 HD
BRANCH   3   6
HETATM    6  O   LIG     1     -22.820 -13.398 -10.380  1.00  0.00    -0.294 OA
BRANCH   6   7
HETATM    7  C   LIG     1     -22.140 -14.145  -9.365  1.00  0.00     0.061 C 
HETATM    8  C   LIG     1     -21.473 -13.163  -8.403  1.00  0.00     0.046 C 
HETATM    9  C   LIG     1     -21.092 -15.014 -10.058  1.00  0.00     0.046 C 
HETATM   10  C   LIG     1     -23.161 -15.015  -8.633  1.00  0.00     0.046 C 
ENDBRANCH   6   7
ENDBRANCH   3   6
ENDBRANCH   1   2
BRANCH   1  11
HETATM   11  C   LIG     1     -21.951 -15.316 -14.462  1.00  0.00     0.045 C 
BRANCH  11  12
HETATM   12  C   LIG     1     -22.548 -16.395 -13.551  1.00  0.00     0.082 C 
HETATM   13  I   LIG     1     -24.045 -17.517 -14.602  1.00  0.00    -0.090 I 
ENDBRANCH  11  12
ENDBRANCH   1  11
BRANCH   1  14
HETATM   14  C   LIG     1     -22.876 -12.990 -14.826  1.00  0.00     0.282 C 
HETATM   15  O   LIG     1     -23.624 -12.111 -14.414  1.00  0.00    -0.263 OA
BRANCH  14  16
HETATM   16  O   LIG     1     -22.650 -13.277 -16.140  1.00  0.00    -0.310 OA
BRANCH  16  17
HETATM   17  C   LIG     1     -23.810 -13.310 -16.977  1.00  0.00     0.060 C 
HETATM   18  C   LIG     1     -23.497 -14.155 -18.210  1.00  0.00     0.045 C 
HETATM   19  C   LIG     1     -24.129 -11.871 -17.378  1.00  0.00     0.045 C 
HETATM   20  C   LIG     1     -24.967 -13.915 -16.181  1.00  0.00     0.045 C 
ENDBRANCH  16  17
ENDBRANCH  14  16
ENDBRANCH   1  14
TORSDOF 8
ENDMDL
