MODEL 1
REMARK VINA RESULT:      -7.4      0.000      0.000
REMARK  3 active torsions:
REMARK  status: ('A' for Active; 'I' for Inactive)
REMARK    1  A    between atoms: C_5  and  C_15 
REMARK    2  A    between atoms: C_15  and  C_16 
REMARK    3  A    between atoms: C_16  and  C_17 
ROOT
HETATM    1  O   LIG     1     -20.196 -16.194  -9.266  1.00  0.00    -0.287 OA
HETATM    2  O   LIG     1     -20.336 -16.358 -11.497  1.00  0.00    -0.238 OA
HETATM    3  N   LIG     1     -21.636 -14.727 -10.460  1.00  0.00    -0.300 N 
HETATM    4  C   LIG     1     -22.139 -14.115  -9.195  1.00  0.00     0.071 C 
HETATM    5  C   LIG     1     -20.995 -14.195  -8.151  1.00  0.00     0.047 C 
HETATM    6  C   LIG     1     -20.655 -15.673  -7.995  1.00  0.00     0.128 C 
HETATM    7  C   LIG     1     -23.382 -14.907  -8.700  1.00  0.00     0.021 C 
HETATM    8  C   LIG     1     -22.511 -12.625  -9.422  1.00  0.00     0.021 C 
HETATM    9  C   LIG     1     -21.829 -16.523  -7.497  1.00  0.00     0.030 C 
HETATM   10  C   LIG     1     -23.078 -16.367  -8.360  1.00  0.00     0.004 C 
HETATM   11  C   LIG     1     -23.348 -12.380 -10.671  1.00  0.00     0.004 C 
HETATM   12  C   LIG     1     -22.347 -14.424 -11.706  1.00  0.00     0.106 C 
HETATM   13  C   LIG     1     -22.631 -12.942 -11.887  1.00  0.00     0.024 C 
HETATM   14  C   LIG     1     -20.708 -15.787 -10.472  1.00  0.00     0.365 C 
ENDROOT
BRANCH   5  15
HETATM   15  C   LIG     1     -21.278 -13.528  -6.801  1.00  0.00     0.004 C 
BRANCH  15  16
HETATM   16  C   LIG     1     -20.487 -12.234  -6.654  1.00  0.00     0.000 C 
BRANCH  16  17
HETATM   17  C   LIG     1     -21.101 -11.338  -5.578  1.00  0.00     0.000 C 
HETATM   18  C   LIG     1     -20.214 -10.141  -5.277  1.00  0.00     0.000 C 
ENDBRANCH  16  17
ENDBRANCH  15  16
ENDBRANCH   5  15
TORSDOF 3
ENDMDL
