MODEL 1
REMARK VINA RESULT:      -6.9      0.000      0.000
REMARK  4 active torsions:
REMARK  status: ('A' for Active; 'I' for Inactive)
REMARK    1  A    between atoms: C_4  and  C_6 
REMARK    2  A    between atoms: C_5  and  C_14 
REMARK    3  A    between atoms: C_7  and  N_16 
REMARK    4  A    between atoms: C_10  and  N_19 
ROOT
HETATM    1  N   LIG     1     -18.833 -20.665 -10.246  1.00  0.00    -0.066 NA
HETATM    2  N   LIG     1     -19.215 -21.054 -12.593  1.00  0.00    -0.045 NA
HETATM    3  C   LIG     1     -19.315 -18.815 -11.711  1.00  0.00     0.048 A 
HETATM    4  C   LIG     1     -19.026 -19.349 -10.470  1.00  0.00     0.080 A 
HETATM    5  C   LIG     1     -19.397 -19.726 -12.746  1.00  0.00     0.153 A 
HETATM    6  C   LIG     1     -18.940 -21.449 -11.335  1.00  0.00     0.722 A 
ENDROOT
BRANCH   3   7
HETATM    7  C   LIG     1     -19.514 -17.395 -11.903  1.00  0.00     0.004 A 
HETATM    8  C   LIG     1     -18.478 -16.606 -12.402  1.00  0.00     0.001 A 
HETATM    9  C   LIG     1     -18.670 -15.237 -12.586  1.00  0.00     0.011 A 
HETATM   10  C   LIG     1     -19.900 -14.657 -12.271  1.00  0.00     0.058 A 
HETATM   11 CL   LIG     1     -20.136 -12.967 -12.496  1.00  0.00    -0.082 Cl
HETATM   12  C   LIG     1     -20.935 -15.445 -11.772  1.00  0.00     0.011 A 
HETATM   13  C   LIG     1     -20.743 -16.815 -11.588  1.00  0.00     0.001 A 
ENDBRANCH   3   7
BRANCH   5  14
HETATM   14  N   LIG     1     -19.689 -19.252 -14.050  1.00  0.00    -0.383 N 
HETATM   15  H   LIG     1     -19.291 -18.356 -14.302  1.00  0.00     0.157 HD
HETATM   16  H   LIG     1     -19.828 -19.924 -14.794  1.00  0.00     0.157 HD
ENDBRANCH   5  14
BRANCH   4  17
HETATM   17  C   LIG     1     -18.909 -18.471  -9.265  1.00  0.00     0.047 C 
HETATM   18  C   LIG     1     -20.156 -18.534  -8.387  1.00  0.00     0.007 C 
ENDBRANCH   4  17
BRANCH   6  19
HETATM   19  N   LIG     1     -18.743 -22.833 -11.138  1.00  0.00    -0.231 N 
HETATM   20  H   LIG     1     -19.416 -23.490 -11.511  1.00  0.00     0.174 HD
HETATM   21  H   LIG     1     -17.932 -23.151 -10.625  1.00  0.00     0.174 HD
ENDBRANCH   6  19
TORSDOF 4
ENDMDL
