MODEL 1
REMARK VINA RESULT:      -7.3      0.000      0.000
REMARK  3 active torsions:
REMARK  status: ('A' for Active; 'I' for Inactive)
REMARK    1  A    between atoms: C_5  and  C_15 
REMARK    2  A    between atoms: C_15  and  C_16 
REMARK    3  A    between atoms: C_16  and  C_17 
ROOT
HETATM    1  O   LIG     1     -20.454 -15.779 -13.063  1.00  0.00    -0.287 OA
HETATM    2  O   LIG     1     -20.130 -16.700 -11.045  1.00  0.00    -0.238 OA
HETATM    3  N   LIG     1     -21.246 -14.658 -11.124  1.00  0.00    -0.300 N 
HETATM    4  C   LIG     1     -21.708 -13.489 -11.930  1.00  0.00     0.071 C 
HETATM    5  C   LIG     1     -22.096 -14.018 -13.336  1.00  0.00     0.047 C 
HETATM    6  C   LIG     1     -20.846 -14.673 -13.911  1.00  0.00     0.128 C 
HETATM    7  C   LIG     1     -20.555 -12.453 -12.040  1.00  0.00     0.021 C 
HETATM    8  C   LIG     1     -22.955 -12.835 -11.276  1.00  0.00     0.021 C 
HETATM    9  C   LIG     1     -19.664 -13.711 -14.063  1.00  0.00     0.030 C 
HETATM   10  C   LIG     1     -19.318 -12.991 -12.763  1.00  0.00     0.004 C 
HETATM   11  C   LIG     1     -22.818 -12.608  -9.775  1.00  0.00     0.004 C 
HETATM   12  C   LIG     1     -21.209 -14.519  -9.664  1.00  0.00     0.106 C 
HETATM   13  C   LIG     1     -22.482 -13.921  -9.088  1.00  0.00     0.024 C 
HETATM   14  C   LIG     1     -20.586 -15.761 -11.698  1.00  0.00     0.365 C 
ENDROOT
BRANCH   5  15
HETATM   15  C   LIG     1     -22.692 -12.983 -14.295  1.00  0.00     0.004 C 
BRANCH  15  16
HETATM   16  C   LIG     1     -23.788 -13.601 -15.155  1.00  0.00     0.000 C 
BRANCH  16  17
HETATM   17  C   LIG     1     -24.253 -12.621 -16.233  1.00  0.00     0.000 C 
HETATM   18  C   LIG     1     -24.079 -13.202 -17.627  1.00  0.00     0.000 C 
ENDBRANCH  16  17
ENDBRANCH  15  16
ENDBRANCH   5  15
TORSDOF 3
ENDMDL
