MODEL 1
REMARK VINA RESULT:      -7.5      0.000      0.000
REMARK  6 active torsions:
REMARK  status: ('A' for Active; 'I' for Inactive)
REMARK    1  A    between atoms: O_1  and  C_17 
REMARK    2  A    between atoms: O_2  and  C_18 
REMARK    3  A    between atoms: N_8  and  C_15 
REMARK    4  A    between atoms: C_9  and  C_12 
REMARK    5  A    between atoms: C_10  and  C_17 
REMARK    6  A    between atoms: C_11  and  C_18 
ROOT
HETATM    1  N   LIG     1     -22.204 -13.293 -10.268  1.00  0.00    -0.362 N 
HETATM    2  C   LIG     1     -21.260 -15.291 -12.037  1.00  0.00     0.103 C 
HETATM    3  C   LIG     1     -21.023 -15.328 -10.522  1.00  0.00     0.052 C 
HETATM    4  C   LIG     1     -22.198 -14.161 -12.469  1.00  0.00     0.052 C 
HETATM    5  C   LIG     1     -21.481 -14.341  -9.719  1.00  0.00     0.018 C 
HETATM    6  C   LIG     1     -22.600 -13.213 -11.594  1.00  0.00     0.018 C 
HETATM    7  C   LIG     1     -21.272 -14.255  -8.231  1.00  0.00     0.069 C 
HETATM    8  C   LIG     1     -23.476 -12.034 -11.924  1.00  0.00     0.069 C 
HETATM    9  H   LIG     1     -22.526 -12.566  -9.639  1.00  0.00     0.165 HD
ENDROOT
BRANCH   2  10
HETATM   10  C   LIG     1     -19.947 -15.171 -12.757  1.00  0.00    -0.012 A 
HETATM   11  C   LIG     1     -19.471 -16.203 -13.560  1.00  0.00     0.110 A 
HETATM   12  C   LIG     1     -18.248 -16.061 -14.216  1.00  0.00     0.037 A 
HETATM   13  C   LIG     1     -17.507 -14.888 -14.066  1.00  0.00     0.002 A 
HETATM   14  C   LIG     1     -17.989 -13.857 -13.259  1.00  0.00     0.001 A 
HETATM   15  C   LIG     1     -19.212 -13.999 -12.603  1.00  0.00     0.011 A 
BRANCH  11  16
HETATM   16  N   LIG     1     -20.207 -17.407 -13.727  1.00  0.00    -0.115 N 
HETATM   17  O   LIG     1     -19.854 -18.428 -13.089  1.00  0.00    -0.532 OA
HETATM   18  O   LIG     1     -21.190 -17.413 -14.506  1.00  0.00    -0.532 OA
ENDBRANCH  11  16
ENDBRANCH   2  10
BRANCH   3  19
HETATM   19  C   LIG     1     -20.333 -16.515  -9.992  1.00  0.00     0.291 C 
HETATM   20  O   LIG     1     -19.127 -16.669 -10.047  1.00  0.00    -0.260 OA
BRANCH  19  21
HETATM   21  O   LIG     1     -21.260 -17.348  -9.462  1.00  0.00    -0.323 OA
HETATM   22  C   LIG     1     -20.839 -18.063  -8.295  1.00  0.00     0.213 C 
ENDBRANCH  19  21
ENDBRANCH   3  19
BRANCH   4  23
HETATM   23  C   LIG     1     -22.669 -14.192 -13.863  1.00  0.00     0.291 C 
HETATM   24  O   LIG     1     -23.480 -15.000 -14.277  1.00  0.00    -0.260 OA
BRANCH  23  25
HETATM   25  O   LIG     1     -22.053 -13.196 -14.545  1.00  0.00    -0.323 OA
HETATM   26  C   LIG     1     -21.526 -13.571 -15.822  1.00  0.00     0.213 C 
ENDBRANCH  23  25
ENDBRANCH   4  23
TORSDOF 6
ENDMDL
