MODEL 1
REMARK VINA RESULT:      -8.2      0.000      0.000
REMARK  7 active torsions:
REMARK  status: ('A' for Active; 'I' for Inactive)
REMARK    1  A    between atoms: O_2  and  C_15 
REMARK    2  A    between atoms: O_2  and  C_16 
REMARK    3  A    between atoms: N_5  and  C_14 
REMARK    4  A    between atoms: N_5  and  C_20 
REMARK    5  A    between atoms: C_8  and  C_9 
REMARK    6  A    between atoms: C_9  and  C_10 
REMARK    7  A    between atoms: C_14  and  C_15 
ROOT
HETATM    1  C   LIG     1     -23.015 -12.585 -12.975  1.00  0.00    -0.056 A 
HETATM    2  C   LIG     1     -23.695 -12.107 -11.865  1.00  0.00     0.010 A 
HETATM    3  C   LIG     1     -21.670 -12.919 -12.902  1.00  0.00     0.010 A 
HETATM    4  C   LIG     1     -21.664 -12.289 -10.570  1.00  0.00     0.068 A 
HETATM    5  C   LIG     1     -23.016 -11.957 -10.656  1.00  0.00     0.037 A 
HETATM    6  C   LIG     1     -20.992 -12.770 -11.693  1.00  0.00     0.037 A 
ENDROOT
BRANCH   4   7
HETATM    7  O   LIG     1     -21.000 -12.143  -9.390  1.00  0.00    -0.350 OA
BRANCH   7   8
HETATM    8  C   LIG     1     -21.513 -12.854  -8.265  1.00  0.00     0.195 C 
BRANCH   8   9
HETATM    9  C   LIG     1     -20.625 -14.060  -8.003  1.00  0.00     0.150 C 
BRANCH   9  10
HETATM   10  N   LIG     1     -21.215 -15.265  -8.564  1.00  0.00    -0.368 N 
HETATM   11  C   LIG     1     -20.619 -15.828  -9.769  1.00  0.00     0.151 C 
BRANCH  10  12
HETATM   12  C   LIG     1     -22.331 -15.862  -7.974  1.00  0.00     0.124 A 
HETATM   13  N   LIG     1     -22.180 -16.571  -6.820  1.00  0.00    -0.244 NA
HETATM   14  C   LIG     1     -23.292 -17.128  -6.289  1.00  0.00     0.119 A 
HETATM   15  C   LIG     1     -24.556 -17.020  -6.847  1.00  0.00     0.019 A 
HETATM   16  C   LIG     1     -24.687 -16.292  -8.023  1.00  0.00     0.005 A 
HETATM   17  C   LIG     1     -23.567 -15.704  -8.600  1.00  0.00     0.050 A 
ENDBRANCH  10  12
ENDBRANCH   9  10
ENDBRANCH   8   9
ENDBRANCH   7   8
ENDBRANCH   4   7
BRANCH   1  18
HETATM   18  C   LIG     1     -23.749 -12.747 -14.281  1.00  0.00     0.063 C 
BRANCH  18  19
HETATM   19  C   LIG     1     -22.854 -13.317 -15.368  1.00  0.00     0.153 A 
HETATM   20  S   LIG     1     -23.190 -12.518 -16.968  1.00  0.00    -0.054 SA
HETATM   21  C   LIG     1     -23.546 -14.024 -17.786  1.00  0.00     0.287 A 
HETATM   22  O   LIG     1     -23.834 -14.094 -18.971  1.00  0.00    -0.260 OA
HETATM   23  N   LIG     1     -23.452 -15.058 -16.891  1.00  0.00    -0.287 N 
HETATM   24  C   LIG     1     -23.114 -14.791 -15.581  1.00  0.00     0.239 A 
HETATM   25  H   LIG     1     -23.641 -16.010 -17.186  1.00  0.00     0.172 HD
HETATM   26  O   LIG     1     -23.026 -15.631 -14.692  1.00  0.00    -0.272 OA
ENDBRANCH  18  19
ENDBRANCH   1  18
TORSDOF 7
ENDMDL
MODEL 2
REMARK VINA RESULT:      -8.1      4.453      6.872
REMARK  7 active torsions:
REMARK  status: ('A' for Active; 'I' for Inactive)
REMARK    1  A    between atoms: O_2  and  C_15 
REMARK    2  A    between atoms: O_2  and  C_16 
REMARK    3  A    between atoms: N_5  and  C_14 
REMARK    4  A    between atoms: N_5  and  C_20 
REMARK    5  A    between atoms: C_8  and  C_9 
REMARK    6  A    between atoms: C_9  and  C_10 
REMARK    7  A    between atoms: C_14  and  C_15 
ROOT
HETATM    1  C   LIG     1     -22.220 -14.333 -10.586  1.00  0.00    -0.056 A 
HETATM    2  C   LIG     1     -21.063 -13.619 -10.860  1.00  0.00     0.010 A 
HETATM    3  C   LIG     1     -22.614 -15.394 -11.387  1.00  0.00     0.010 A 
HETATM    4  C   LIG     1     -20.668 -15.038 -12.774  1.00  0.00     0.068 A 
HETATM    5  C   LIG     1     -20.283 -13.973 -11.960  1.00  0.00     0.037 A 
HETATM    6  C   LIG     1     -21.834 -15.748 -12.487  1.00  0.00     0.037 A 
ENDROOT
BRANCH   4   7
HETATM    7  O   LIG     1     -19.908 -15.385 -13.849  1.00  0.00    -0.350 OA
BRANCH   7   8
HETATM    8  C   LIG     1     -18.714 -16.120 -13.589  1.00  0.00     0.195 C 
BRANCH   8   9
HETATM    9  C   LIG     1     -19.046 -17.603 -13.575  1.00  0.00     0.150 C 
BRANCH   9  10
HETATM   10  N   LIG     1     -18.897 -18.151 -12.236  1.00  0.00    -0.368 N 
HETATM   11  C   LIG     1     -18.546 -17.240 -11.154  1.00  0.00     0.151 C 
BRANCH  10  12
HETATM   12  C   LIG     1     -19.074 -19.515 -11.993  1.00  0.00     0.124 A 
HETATM   13  N   LIG     1     -19.385 -20.345 -13.027  1.00  0.00    -0.244 NA
HETATM   14  C   LIG     1     -19.545 -21.656 -12.738  1.00  0.00     0.119 A 
HETATM   15  C   LIG     1     -19.412 -22.192 -11.466  1.00  0.00     0.019 A 
HETATM   16  C   LIG     1     -19.094 -21.327 -10.426  1.00  0.00     0.005 A 
HETATM   17  C   LIG     1     -18.922 -19.972 -10.683  1.00  0.00     0.050 A 
ENDBRANCH  10  12
ENDBRANCH   9  10
ENDBRANCH   8   9
ENDBRANCH   7   8
ENDBRANCH   4   7
BRANCH   1  18
HETATM   18  C   LIG     1     -23.062 -13.950  -9.396  1.00  0.00     0.063 C 
BRANCH  18  19
HETATM   19  C   LIG     1     -22.818 -14.866  -8.210  1.00  0.00     0.153 A 
HETATM   20  S   LIG     1     -21.191 -15.671  -8.336  1.00  0.00    -0.054 SA
HETATM   21  C   LIG     1     -21.847 -17.291  -8.249  1.00  0.00     0.287 A 
HETATM   22  O   LIG     1     -21.156 -18.298  -8.267  1.00  0.00    -0.260 OA
HETATM   23  N   LIG     1     -23.213 -17.222  -8.167  1.00  0.00    -0.287 N 
HETATM   24  C   LIG     1     -23.830 -15.989  -8.162  1.00  0.00     0.239 A 
HETATM   25  H   LIG     1     -23.768 -18.072  -8.124  1.00  0.00     0.172 HD
HETATM   26  O   LIG     1     -25.042 -15.809  -8.118  1.00  0.00    -0.272 OA
ENDBRANCH  18  19
ENDBRANCH   1  18
TORSDOF 7
ENDMDL
MODEL 3
REMARK VINA RESULT:      -8.1      5.763      8.806
REMARK  7 active torsions:
REMARK  status: ('A' for Active; 'I' for Inactive)
REMARK    1  A    between atoms: O_2  and  C_15 
REMARK    2  A    between atoms: O_2  and  C_16 
REMARK    3  A    between atoms: N_5  and  C_14 
REMARK    4  A    between atoms: N_5  and  C_20 
REMARK    5  A    between atoms: C_8  and  C_9 
REMARK    6  A    between atoms: C_9  and  C_10 
REMARK    7  A    between atoms: C_14  and  C_15 
ROOT
HETATM    1  C   LIG     1     -19.347 -17.822 -11.378  1.00  0.00    -0.056 A 
HETATM    2  C   LIG     1     -19.497 -17.763 -12.756  1.00  0.00     0.010 A 
HETATM    3  C   LIG     1     -19.220 -19.037 -10.723  1.00  0.00     0.010 A 
HETATM    4  C   LIG     1     -19.392 -20.174 -12.847  1.00  0.00     0.068 A 
HETATM    5  C   LIG     1     -19.520 -18.945 -13.494  1.00  0.00     0.037 A 
HETATM    6  C   LIG     1     -19.242 -20.219 -11.461  1.00  0.00     0.037 A 
ENDROOT
BRANCH   4   7
HETATM    7  O   LIG     1     -19.416 -21.329 -13.567  1.00  0.00    -0.350 OA
BRANCH   7   8
HETATM    8  C   LIG     1     -20.359 -21.410 -14.634  1.00  0.00     0.195 C 
BRANCH   8   9
HETATM    9  C   LIG     1     -21.698 -21.857 -14.070  1.00  0.00     0.150 C 
BRANCH   9  10
HETATM   10  N   LIG     1     -22.793 -21.329 -14.868  1.00  0.00    -0.368 N 
HETATM   11  C   LIG     1     -22.889 -19.884 -15.038  1.00  0.00     0.151 C 
BRANCH  10  12
HETATM   12  C   LIG     1     -23.737 -22.180 -15.447  1.00  0.00     0.124 A 
HETATM   13  N   LIG     1     -24.671 -21.667 -16.296  1.00  0.00    -0.244 NA
HETATM   14  C   LIG     1     -25.561 -22.533 -16.830  1.00  0.00     0.119 A 
HETATM   15  C   LIG     1     -25.574 -23.894 -16.565  1.00  0.00     0.019 A 
HETATM   16  C   LIG     1     -24.612 -24.397 -15.697  1.00  0.00     0.005 A 
HETATM   17  C   LIG     1     -23.680 -23.537 -15.127  1.00  0.00     0.050 A 
ENDBRANCH  10  12
ENDBRANCH   9  10
ENDBRANCH   8   9
ENDBRANCH   7   8
ENDBRANCH   4   7
BRANCH   1  18
HETATM   18  C   LIG     1     -19.322 -16.543 -10.581  1.00  0.00     0.063 C 
BRANCH  18  19
HETATM   19  C   LIG     1     -20.665 -15.833 -10.604  1.00  0.00     0.153 A 
HETATM   20  S   LIG     1     -20.615 -14.390 -11.711  1.00  0.00    -0.054 SA
HETATM   21  C   LIG     1     -21.104 -13.262 -10.465  1.00  0.00     0.287 A 
HETATM   22  O   LIG     1     -21.266 -12.068 -10.666  1.00  0.00    -0.260 OA
HETATM   23  N   LIG     1     -21.257 -13.934  -9.281  1.00  0.00    -0.287 N 
HETATM   24  C   LIG     1     -21.028 -15.293  -9.239  1.00  0.00     0.239 A 
HETATM   25  H   LIG     1     -21.525 -13.435  -8.439  1.00  0.00     0.172 HD
HETATM   26  O   LIG     1     -21.110 -15.990  -8.234  1.00  0.00    -0.272 OA
ENDBRANCH  18  19
ENDBRANCH   1  18
TORSDOF 7
ENDMDL
MODEL 4
REMARK VINA RESULT:      -8.1      4.593      6.015
REMARK  7 active torsions:
REMARK  status: ('A' for Active; 'I' for Inactive)
REMARK    1  A    between atoms: O_2  and  C_15 
REMARK    2  A    between atoms: O_2  and  C_16 
REMARK    3  A    between atoms: N_5  and  C_14 
REMARK    4  A    between atoms: N_5  and  C_20 
REMARK    5  A    between atoms: C_8  and  C_9 
REMARK    6  A    between atoms: C_9  and  C_10 
REMARK    7  A    between atoms: C_14  and  C_15 
ROOT
HETATM    1  C   LIG     1     -19.577 -17.390 -13.200  1.00  0.00    -0.056 A 
HETATM    2  C   LIG     1     -20.749 -16.950 -13.797  1.00  0.00     0.010 A 
HETATM    3  C   LIG     1     -18.877 -16.584 -12.315  1.00  0.00     0.010 A 
HETATM    4  C   LIG     1     -20.537 -14.854 -12.614  1.00  0.00     0.068 A 
HETATM    5  C   LIG     1     -21.231 -15.674 -13.503  1.00  0.00     0.037 A 
HETATM    6  C   LIG     1     -19.360 -15.309 -12.020  1.00  0.00     0.037 A 
ENDROOT
BRANCH   4   7
HETATM    7  O   LIG     1     -21.006 -13.609 -12.327  1.00  0.00    -0.350 OA
BRANCH   7   8
HETATM    8  C   LIG     1     -21.108 -13.256 -10.949  1.00  0.00     0.195 C 
BRANCH   8   9
HETATM    9  C   LIG     1     -22.262 -14.028 -10.330  1.00  0.00     0.150 C 
BRANCH   9  10
HETATM   10  N   LIG     1     -22.023 -14.265  -8.915  1.00  0.00    -0.368 N 
HETATM   11  C   LIG     1     -20.988 -13.482  -8.251  1.00  0.00     0.151 C 
BRANCH  10  12
HETATM   12  C   LIG     1     -22.755 -15.225  -8.213  1.00  0.00     0.124 A 
HETATM   13  N   LIG     1     -24.065 -15.430  -8.525  1.00  0.00    -0.244 NA
HETATM   14  C   LIG     1     -24.729 -16.370  -7.815  1.00  0.00     0.119 A 
HETATM   15  C   LIG     1     -24.157 -17.124  -6.802  1.00  0.00     0.019 A 
HETATM   16  C   LIG     1     -22.819 -16.899  -6.500  1.00  0.00     0.005 A 
HETATM   17  C   LIG     1     -22.103 -15.940  -7.208  1.00  0.00     0.050 A 
ENDBRANCH  10  12
ENDBRANCH   9  10
ENDBRANCH   8   9
ENDBRANCH   7   8
ENDBRANCH   4   7
BRANCH   1  18
HETATM   18  C   LIG     1     -19.057 -18.768 -13.518  1.00  0.00     0.063 C 
BRANCH  18  19
HETATM   19  C   LIG     1     -19.834 -19.850 -12.789  1.00  0.00     0.153 A 
HETATM   20  S   LIG     1     -19.145 -20.137 -11.129  1.00  0.00    -0.054 SA
HETATM   21  C   LIG     1     -18.866 -21.843 -11.404  1.00  0.00     0.287 A 
HETATM   22  O   LIG     1     -18.404 -22.594 -10.558  1.00  0.00    -0.260 OA
HETATM   23  N   LIG     1     -19.238 -22.161 -12.684  1.00  0.00    -0.287 N 
HETATM   24  C   LIG     1     -19.741 -21.177 -13.508  1.00  0.00     0.239 A 
HETATM   25  H   LIG     1     -19.131 -23.111 -13.028  1.00  0.00     0.172 HD
HETATM   26  O   LIG     1     -20.081 -21.341 -14.675  1.00  0.00    -0.272 OA
ENDBRANCH  18  19
ENDBRANCH   1  18
TORSDOF 7
ENDMDL
MODEL 5
REMARK VINA RESULT:      -7.8      5.495      8.368
REMARK  7 active torsions:
REMARK  status: ('A' for Active; 'I' for Inactive)
REMARK    1  A    between atoms: O_2  and  C_15 
REMARK    2  A    between atoms: O_2  and  C_16 
REMARK    3  A    between atoms: N_5  and  C_14 
REMARK    4  A    between atoms: N_5  and  C_20 
REMARK    5  A    between atoms: C_8  and  C_9 
REMARK    6  A    between atoms: C_9  and  C_10 
REMARK    7  A    between atoms: C_14  and  C_15 
ROOT
HETATM    1  C   LIG     1     -23.635 -20.139 -14.782  1.00  0.00    -0.056 A 
HETATM    2  C   LIG     1     -22.480 -19.413 -15.029  1.00  0.00     0.010 A 
HETATM    3  C   LIG     1     -24.755 -19.537 -14.229  1.00  0.00     0.010 A 
HETATM    4  C   LIG     1     -23.562 -17.438 -14.158  1.00  0.00     0.068 A 
HETATM    5  C   LIG     1     -22.443 -18.055 -14.714  1.00  0.00     0.037 A 
HETATM    6  C   LIG     1     -24.718 -18.179 -13.915  1.00  0.00     0.037 A 
ENDROOT
BRANCH   4   7
HETATM    7  O   LIG     1     -23.527 -16.112 -13.849  1.00  0.00    -0.350 OA
BRANCH   7   8
HETATM    8  C   LIG     1     -22.503 -15.681 -12.954  1.00  0.00     0.195 C 
BRANCH   8   9
HETATM    9  C   LIG     1     -22.401 -14.166 -13.023  1.00  0.00     0.150 C 
BRANCH   9  10
HETATM   10  N   LIG     1     -21.831 -13.746 -14.294  1.00  0.00    -0.368 N 
HETATM   11  C   LIG     1     -20.392 -13.525 -14.364  1.00  0.00     0.151 C 
BRANCH  10  12
HETATM   12  C   LIG     1     -22.640 -13.548 -15.415  1.00  0.00     0.124 A 
HETATM   13  N   LIG     1     -22.265 -14.076 -16.614  1.00  0.00    -0.244 NA
HETATM   14  C   LIG     1     -23.083 -13.856 -17.667  1.00  0.00     0.119 A 
HETATM   15  C   LIG     1     -24.264 -13.132 -17.595  1.00  0.00     0.019 A 
HETATM   16  C   LIG     1     -24.627 -12.603 -16.362  1.00  0.00     0.005 A 
HETATM   17  C   LIG     1     -23.811 -12.808 -15.255  1.00  0.00     0.050 A 
ENDBRANCH  10  12
ENDBRANCH   9  10
ENDBRANCH   8   9
ENDBRANCH   7   8
ENDBRANCH   4   7
BRANCH   1  18
HETATM   18  C   LIG     1     -23.675 -21.607 -15.123  1.00  0.00     0.063 C 
BRANCH  18  19
HETATM   19  C   LIG     1     -25.062 -22.052 -15.554  1.00  0.00     0.153 A 
HETATM   20  S   LIG     1     -25.247 -23.853 -15.381  1.00  0.00    -0.054 SA
HETATM   21  C   LIG     1     -25.677 -24.096 -17.060  1.00  0.00     0.287 A 
HETATM   22  O   LIG     1     -25.952 -25.188 -17.534  1.00  0.00    -0.260 OA
HETATM   23  N   LIG     1     -25.645 -22.891 -17.714  1.00  0.00    -0.287 N 
HETATM   24  C   LIG     1     -25.309 -21.750 -17.015  1.00  0.00     0.239 A 
HETATM   25  H   LIG     1     -25.853 -22.840 -18.706  1.00  0.00     0.172 HD
HETATM   26  O   LIG     1     -25.224 -20.628 -17.501  1.00  0.00    -0.272 OA
ENDBRANCH  18  19
ENDBRANCH   1  18
TORSDOF 7
ENDMDL
MODEL 6
REMARK VINA RESULT:      -7.8      5.338      7.238
REMARK  7 active torsions:
REMARK  status: ('A' for Active; 'I' for Inactive)
REMARK    1  A    between atoms: O_2  and  C_15 
REMARK    2  A    between atoms: O_2  and  C_16 
REMARK    3  A    between atoms: N_5  and  C_14 
REMARK    4  A    between atoms: N_5  and  C_20 
REMARK    5  A    between atoms: C_8  and  C_9 
REMARK    6  A    between atoms: C_9  and  C_10 
REMARK    7  A    between atoms: C_14  and  C_15 
ROOT
HETATM    1  C   LIG     1     -24.291 -18.970 -14.839  1.00  0.00    -0.056 A 
HETATM    2  C   LIG     1     -25.198 -17.938 -15.030  1.00  0.00     0.010 A 
HETATM    3  C   LIG     1     -22.927 -18.724 -14.780  1.00  0.00     0.010 A 
HETATM    4  C   LIG     1     -23.362 -16.370 -15.109  1.00  0.00     0.068 A 
HETATM    5  C   LIG     1     -24.731 -16.632 -15.167  1.00  0.00     0.037 A 
HETATM    6  C   LIG     1     -22.461 -17.417 -14.916  1.00  0.00     0.037 A 
ENDROOT
BRANCH   4   7
HETATM    7  O   LIG     1     -22.905 -15.095 -15.243  1.00  0.00    -0.350 OA
BRANCH   7   8
HETATM    8  C   LIG     1     -22.299 -14.500 -14.097  1.00  0.00     0.195 C 
BRANCH   8   9
HETATM    9  C   LIG     1     -20.888 -14.065 -14.461  1.00  0.00     0.150 C 
BRANCH   9  10
HETATM   10  N   LIG     1     -19.990 -14.236 -13.330  1.00  0.00    -0.368 N 
HETATM   11  C   LIG     1     -19.427 -13.043 -12.710  1.00  0.00     0.151 C 
BRANCH  10  12
HETATM   12  C   LIG     1     -19.663 -15.509 -12.856  1.00  0.00     0.124 A 
HETATM   13  N   LIG     1     -19.782 -15.779 -11.526  1.00  0.00    -0.244 NA
HETATM   14  C   LIG     1     -19.454 -17.026 -11.118  1.00  0.00     0.119 A 
HETATM   15  C   LIG     1     -19.010 -18.028 -11.968  1.00  0.00     0.019 A 
HETATM   16  C   LIG     1     -18.897 -17.730 -13.320  1.00  0.00     0.005 A 
HETATM   17  C   LIG     1     -19.224 -16.459 -13.778  1.00  0.00     0.050 A 
ENDBRANCH  10  12
ENDBRANCH   9  10
ENDBRANCH   8   9
ENDBRANCH   7   8
ENDBRANCH   4   7
BRANCH   1  18
HETATM   18  C   LIG     1     -24.796 -20.382 -14.691  1.00  0.00     0.063 C 
BRANCH  18  19
HETATM   19  C   LIG     1     -24.178 -21.316 -15.718  1.00  0.00     0.153 A 
HETATM   20  S   LIG     1     -25.466 -22.252 -16.600  1.00  0.00    -0.054 SA
HETATM   21  C   LIG     1     -24.800 -23.813 -16.171  1.00  0.00     0.287 A 
HETATM   22  O   LIG     1     -25.282 -24.873 -16.539  1.00  0.00    -0.260 OA
HETATM   23  N   LIG     1     -23.695 -23.631 -15.381  1.00  0.00    -0.287 N 
HETATM   24  C   LIG     1     -23.293 -22.351 -15.062  1.00  0.00     0.239 A 
HETATM   25  H   LIG     1     -23.185 -24.432 -15.022  1.00  0.00     0.172 HD
HETATM   26  O   LIG     1     -22.339 -22.072 -14.344  1.00  0.00    -0.272 OA
ENDBRANCH  18  19
ENDBRANCH   1  18
TORSDOF 7
ENDMDL
MODEL 7
REMARK VINA RESULT:      -7.7      2.189      4.061
REMARK  7 active torsions:
REMARK  status: ('A' for Active; 'I' for Inactive)
REMARK    1  A    between atoms: O_2  and  C_15 
REMARK    2  A    between atoms: O_2  and  C_16 
REMARK    3  A    between atoms: N_5  and  C_14 
REMARK    4  A    between atoms: N_5  and  C_20 
REMARK    5  A    between atoms: C_8  and  C_9 
REMARK    6  A    between atoms: C_9  and  C_10 
REMARK    7  A    between atoms: C_14  and  C_15 
ROOT
HETATM    1  C   LIG     1     -21.450 -16.185 -12.360  1.00  0.00    -0.056 A 
HETATM    2  C   LIG     1     -20.328 -16.584 -11.648  1.00  0.00     0.010 A 
HETATM    3  C   LIG     1     -22.661 -15.962 -11.723  1.00  0.00     0.010 A 
HETATM    4  C   LIG     1     -21.632 -16.545  -9.615  1.00  0.00     0.068 A 
HETATM    5  C   LIG     1     -20.420 -16.765 -10.269  1.00  0.00     0.037 A 
HETATM    6  C   LIG     1     -22.753 -16.143 -10.343  1.00  0.00     0.037 A 
ENDROOT
BRANCH   4   7
HETATM    7  O   LIG     1     -21.723 -16.722  -8.269  1.00  0.00    -0.350 OA
BRANCH   7   8
HETATM    8  C   LIG     1     -22.049 -15.576  -7.484  1.00  0.00     0.195 C 
BRANCH   8   9
HETATM    9  C   LIG     1     -20.837 -14.659  -7.432  1.00  0.00     0.150 C 
BRANCH   9  10
HETATM   10  N   LIG     1     -21.214 -13.290  -7.748  1.00  0.00    -0.368 N 
HETATM   11  C   LIG     1     -21.173 -12.300  -6.680  1.00  0.00     0.151 C 
BRANCH  10  12
HETATM   12  C   LIG     1     -21.616 -12.934  -9.038  1.00  0.00     0.124 A 
HETATM   13  N   LIG     1     -20.724 -13.014 -10.064  1.00  0.00    -0.244 NA
HETATM   14  C   LIG     1     -21.163 -12.658 -11.292  1.00  0.00     0.119 A 
HETATM   15  C   LIG     1     -22.452 -12.223 -11.559  1.00  0.00     0.019 A 
HETATM   16  C   LIG     1     -23.347 -12.150 -10.497  1.00  0.00     0.005 A 
HETATM   17  C   LIG     1     -22.932 -12.507  -9.219  1.00  0.00     0.050 A 
ENDBRANCH  10  12
ENDBRANCH   9  10
ENDBRANCH   8   9
ENDBRANCH   7   8
ENDBRANCH   4   7
BRANCH   1  18
HETATM   18  C   LIG     1     -21.350 -15.989 -13.851  1.00  0.00     0.063 C 
BRANCH  18  19
HETATM   19  C   LIG     1     -22.029 -14.707 -14.301  1.00  0.00     0.153 A 
HETATM   20  S   LIG     1     -23.356 -15.061 -15.494  1.00  0.00    -0.054 SA
HETATM   21  C   LIG     1     -22.684 -14.028 -16.737  1.00  0.00     0.287 A 
HETATM   22  O   LIG     1     -23.212 -13.854 -17.825  1.00  0.00    -0.260 OA
HETATM   23  N   LIG     1     -21.511 -13.481 -16.285  1.00  0.00    -0.287 N 
HETATM   24  C   LIG     1     -21.062 -13.793 -15.019  1.00  0.00     0.239 A 
HETATM   25  H   LIG     1     -20.970 -12.863 -16.882  1.00  0.00     0.172 HD
HETATM   26  O   LIG     1     -20.018 -13.385 -14.523  1.00  0.00    -0.272 OA
ENDBRANCH  18  19
ENDBRANCH   1  18
TORSDOF 7
ENDMDL
MODEL 8
REMARK VINA RESULT:      -7.7      4.294      6.413
REMARK  7 active torsions:
REMARK  status: ('A' for Active; 'I' for Inactive)
REMARK    1  A    between atoms: O_2  and  C_15 
REMARK    2  A    between atoms: O_2  and  C_16 
REMARK    3  A    between atoms: N_5  and  C_14 
REMARK    4  A    between atoms: N_5  and  C_20 
REMARK    5  A    between atoms: C_8  and  C_9 
REMARK    6  A    between atoms: C_9  and  C_10 
REMARK    7  A    between atoms: C_14  and  C_15 
ROOT
HETATM    1  C   LIG     1     -19.275 -17.033 -13.133  1.00  0.00    -0.056 A 
HETATM    2  C   LIG     1     -18.392 -15.989 -12.896  1.00  0.00     0.010 A 
HETATM    3  C   LIG     1     -20.591 -16.791 -13.497  1.00  0.00     0.010 A 
HETATM    4  C   LIG     1     -20.157 -14.416 -13.392  1.00  0.00     0.068 A 
HETATM    5  C   LIG     1     -18.836 -14.674 -13.026  1.00  0.00     0.037 A 
HETATM    6  C   LIG     1     -21.034 -15.475 -13.627  1.00  0.00     0.037 A 
ENDROOT
BRANCH   4   7
HETATM    7  O   LIG     1     -20.591 -13.132 -13.518  1.00  0.00    -0.350 OA
BRANCH   7   8
HETATM    8  C   LIG     1     -21.730 -12.754 -12.747  1.00  0.00     0.195 C 
BRANCH   8   9
HETATM    9  C   LIG     1     -21.266 -12.345 -11.358  1.00  0.00     0.150 C 
BRANCH   9  10
HETATM   10  N   LIG     1     -22.329 -12.537 -10.384  1.00  0.00    -0.368 N 
HETATM   11  C   LIG     1     -23.540 -11.736 -10.519  1.00  0.00     0.151 C 
BRANCH  10  12
HETATM   12  C   LIG     1     -22.192 -13.453  -9.339  1.00  0.00     0.124 A 
HETATM   13  N   LIG     1     -22.922 -14.603  -9.356  1.00  0.00    -0.244 NA
HETATM   14  C   LIG     1     -22.752 -15.457  -8.321  1.00  0.00     0.119 A 
HETATM   15  C   LIG     1     -21.888 -15.228  -7.261  1.00  0.00     0.019 A 
HETATM   16  C   LIG     1     -21.152 -14.049  -7.265  1.00  0.00     0.005 A 
HETATM   17  C   LIG     1     -21.300 -13.146  -8.311  1.00  0.00     0.050 A 
ENDBRANCH  10  12
ENDBRANCH   9  10
ENDBRANCH   8   9
ENDBRANCH   7   8
ENDBRANCH   4   7
BRANCH   1  18
HETATM   18  C   LIG     1     -18.795 -18.455 -12.993  1.00  0.00     0.063 C 
BRANCH  18  19
HETATM   19  C   LIG     1     -19.658 -19.253 -12.030  1.00  0.00     0.153 A 
HETATM   20  S   LIG     1     -19.400 -18.698 -10.317  1.00  0.00    -0.054 SA
HETATM   21  C   LIG     1     -18.943 -20.286  -9.740  1.00  0.00     0.287 A 
HETATM   22  O   LIG     1     -18.665 -20.524  -8.575  1.00  0.00    -0.260 OA
HETATM   23  N   LIG     1     -18.951 -21.168 -10.789  1.00  0.00    -0.287 N 
HETATM   24  C   LIG     1     -19.293 -20.720 -12.048  1.00  0.00     0.239 A 
HETATM   25  H   LIG     1     -18.696 -22.140 -10.644  1.00  0.00     0.172 HD
HETATM   26  O   LIG     1     -19.309 -21.411 -13.060  1.00  0.00    -0.272 OA
ENDBRANCH  18  19
ENDBRANCH   1  18
TORSDOF 7
ENDMDL
MODEL 9
REMARK VINA RESULT:      -7.6      5.092      7.075
REMARK  7 active torsions:
REMARK  status: ('A' for Active; 'I' for Inactive)
REMARK    1  A    between atoms: O_2  and  C_15 
REMARK    2  A    between atoms: O_2  and  C_16 
REMARK    3  A    between atoms: N_5  and  C_14 
REMARK    4  A    between atoms: N_5  and  C_20 
REMARK    5  A    between atoms: C_8  and  C_9 
REMARK    6  A    between atoms: C_9  and  C_10 
REMARK    7  A    between atoms: C_14  and  C_15 
ROOT
HETATM    1  C   LIG     1     -24.302 -18.983 -14.815  1.00  0.00    -0.056 A 
HETATM    2  C   LIG     1     -25.229 -17.973 -15.027  1.00  0.00     0.010 A 
HETATM    3  C   LIG     1     -22.945 -18.706 -14.741  1.00  0.00     0.010 A 
HETATM    4  C   LIG     1     -23.428 -16.365 -15.095  1.00  0.00     0.068 A 
HETATM    5  C   LIG     1     -24.789 -16.657 -15.168  1.00  0.00     0.037 A 
HETATM    6  C   LIG     1     -22.506 -17.390 -14.882  1.00  0.00     0.037 A 
ENDROOT
BRANCH   4   7
HETATM    7  O   LIG     1     -22.997 -15.081 -15.234  1.00  0.00    -0.350 OA
BRANCH   7   8
HETATM    8  C   LIG     1     -21.604 -14.840 -15.045  1.00  0.00     0.195 C 
BRANCH   8   9
HETATM    9  C   LIG     1     -21.403 -13.371 -14.709  1.00  0.00     0.150 C 
BRANCH   9  10
HETATM   10  N   LIG     1     -20.755 -13.223 -13.416  1.00  0.00    -0.368 N 
HETATM   11  C   LIG     1     -19.311 -13.411 -13.344  1.00  0.00     0.151 C 
BRANCH  10  12
HETATM   12  C   LIG     1     -21.494 -12.921 -12.270  1.00  0.00     0.124 A 
HETATM   13  N   LIG     1     -20.962 -13.177 -11.042  1.00  0.00    -0.244 NA
HETATM   14  C   LIG     1     -21.717 -12.865  -9.965  1.00  0.00     0.119 A 
HETATM   15  C   LIG     1     -22.985 -12.308 -10.042  1.00  0.00     0.019 A 
HETATM   16  C   LIG     1     -23.508 -12.055 -11.305  1.00  0.00     0.005 A 
HETATM   17  C   LIG     1     -22.761 -12.362 -12.436  1.00  0.00     0.050 A 
ENDBRANCH  10  12
ENDBRANCH   9  10
ENDBRANCH   8   9
ENDBRANCH   7   8
ENDBRANCH   4   7
BRANCH   1  18
HETATM   18  C   LIG     1     -24.777 -20.404 -14.662  1.00  0.00     0.063 C 
BRANCH  18  19
HETATM   19  C   LIG     1     -24.163 -21.323 -15.704  1.00  0.00     0.153 A 
HETATM   20  S   LIG     1     -25.455 -22.228 -16.612  1.00  0.00    -0.054 SA
HETATM   21  C   LIG     1     -24.807 -23.804 -16.211  1.00  0.00     0.287 A 
HETATM   22  O   LIG     1     -25.297 -24.852 -16.603  1.00  0.00    -0.260 OA
HETATM   23  N   LIG     1     -23.705 -23.650 -15.410  1.00  0.00    -0.287 N 
HETATM   24  C   LIG     1     -23.292 -22.380 -15.064  1.00  0.00     0.239 A 
HETATM   25  H   LIG     1     -23.204 -24.462 -15.065  1.00  0.00     0.172 HD
HETATM   26  O   LIG     1     -22.340 -22.125 -14.335  1.00  0.00    -0.272 OA
ENDBRANCH  18  19
ENDBRANCH   1  18
TORSDOF 7
ENDMDL
