MODEL 1
REMARK VINA RESULT:      -9.0      0.000      0.000
REMARK  1 active torsions:
REMARK  status: ('A' for Active; 'I' for Inactive)
REMARK    1  A    between atoms: O_1  and  C_10 
ROOT
HETATM    1  O   LIG     1     -19.142 -21.865 -10.446  1.00  0.00    -0.293 OA
HETATM    2  C   LIG     1     -21.423 -15.104 -13.175  1.00  0.00     0.001 C 
HETATM    3  C   LIG     1     -21.428 -13.915 -12.195  1.00  0.00    -0.014 C 
HETATM    4  C   LIG     1     -20.284 -16.092 -12.899  1.00  0.00    -0.004 C 
HETATM    5  C   LIG     1     -20.445 -16.651 -11.450  1.00  0.00     0.002 C 
HETATM    6  C   LIG     1     -19.341 -17.716 -11.081  1.00  0.00    -0.016 C 
HETATM    7  C   LIG     1     -21.660 -14.466 -10.782  1.00  0.00     0.012 C 
HETATM    8  C   LIG     1     -20.597 -15.512 -10.403  1.00  0.00     0.007 C 
HETATM    9  C   LIG     1     -22.610 -13.116 -12.777  1.00  0.00     0.126 C 
HETATM   10  C   LIG     1     -21.514 -14.437 -14.545  1.00  0.00     0.008 C 
HETATM   11  C   LIG     1     -20.287 -17.244 -13.912  1.00  0.00     0.010 C 
HETATM   12  C   LIG     1     -22.407 -13.207 -14.303  1.00  0.00     0.033 C 
HETATM   13  C   LIG     1     -19.245 -18.764 -12.197  1.00  0.00    -0.068 C 
HETATM   14  C   LIG     1     -19.175 -18.241 -13.613  1.00  0.00     0.035 C 
HETATM   15  C   LIG     1     -20.138 -13.058 -12.213  1.00  0.00     0.018 C 
HETATM   16  C   LIG     1     -19.751 -18.400  -9.744  1.00  0.00     0.022 C 
HETATM   17  C   LIG     1     -17.949 -17.069 -10.905  1.00  0.00     0.020 C 
HETATM   18  C   LIG     1     -18.994 -19.688  -9.461  1.00  0.00     0.084 C 
HETATM   19  C   LIG     1     -19.197 -20.089 -11.983  1.00  0.00     0.053 C 
HETATM   20  C   LIG     1     -19.141 -20.647 -10.612  1.00  0.00     0.149 C 
ENDROOT
BRANCH   9  21
HETATM   21  O   LIG     1     -22.642 -11.774 -12.332  1.00  0.00    -0.395 OA
HETATM   22  H   LIG     1     -22.312 -11.199 -13.042  1.00  0.00     0.210 HD
ENDBRANCH   9  21
TORSDOF 1
ENDMDL
