MODEL 1
REMARK VINA RESULT:     -10.0      0.000      0.000
REMARK  9 active torsions:
REMARK  status: ('A' for Active; 'I' for Inactive)
REMARK    1  A    between atoms: O_3  and  C_15 
REMARK    2  A    between atoms: O_3  and  C_24 
REMARK    3  A    between atoms: O_4  and  C_30 
REMARK    4  A    between atoms: O_4  and  C_32 
REMARK    5  A    between atoms: O_5  and  C_23 
REMARK    6  A    between atoms: N_11  and  C_22 
REMARK       I    between atoms: N_11  and  C_31 
REMARK    7  A    between atoms: N_12  and  C_28 
REMARK    8  A    between atoms: C_24  and  C_32 
REMARK    9  A    between atoms: C_30  and  C_31 
ROOT
HETATM    1  O   LIG     1     -22.033 -16.329 -14.589  1.00  0.00    -0.310 OA
ENDROOT
BRANCH   1   2
HETATM    2  C   LIG     1     -23.453 -16.209 -14.449  1.00  0.00     0.281 C 
BRANCH   2   3
HETATM    3  C   LIG     1     -24.059 -17.595 -14.416  1.00  0.00     0.246 C 
HETATM    4  O   LIG     1     -25.105 -17.803 -13.808  1.00  0.00    -0.271 OA
HETATM    5  N   LIG     1     -23.295 -18.503 -15.138  1.00  0.00    -0.323 N 
HETATM    6  H   LIG     1     -22.449 -18.156 -15.584  1.00  0.00     0.169 HD
BRANCH   5   7
HETATM    7  C   LIG     1     -23.550 -19.882 -15.330  1.00  0.00     0.068 A 
HETATM    8  C   LIG     1     -22.630 -20.842 -14.906  1.00  0.00     0.097 A 
HETATM    9  C   LIG     1     -22.896 -22.197 -15.102  1.00  0.00     0.075 A 
HETATM   10  C   LIG     1     -24.080 -22.593 -15.720  1.00  0.00     0.105 A 
HETATM   11  C   LIG     1     -25.001 -21.634 -16.144  1.00  0.00     0.038 A 
HETATM   12  C   LIG     1     -24.736 -20.278 -15.948  1.00  0.00     0.035 A 
BRANCH   8  13
HETATM   13  O   LIG     1     -21.465 -20.474 -14.300  1.00  0.00    -0.354 OA
HETATM   14  C   LIG     1     -20.397 -21.418 -14.326  1.00  0.00     0.210 C 
ENDBRANCH   8  13
BRANCH  10  15
HETATM   15  N   LIG     1     -24.351 -23.972 -15.921  1.00  0.00    -0.116 N 
HETATM   16  O   LIG     1     -24.284 -24.756 -14.944  1.00  0.00    -0.532 OA
HETATM   17  O   LIG     1     -24.652 -24.370 -17.073  1.00  0.00    -0.532 OA
ENDBRANCH  10  15
ENDBRANCH   5   7
ENDBRANCH   2   3
ENDBRANCH   1   2
BRANCH   1  18
HETATM   18  C   LIG     1     -21.291 -15.594 -13.711  1.00  0.00     0.283 C 
HETATM   19  O   LIG     1     -20.340 -14.878 -13.994  1.00  0.00    -0.263 OA
BRANCH  18  20
HETATM   20  C   LIG     1     -21.829 -15.803 -12.320  1.00  0.00     0.286 C 
BRANCH  20  21
HETATM   21  O   LIG     1     -20.800 -15.511 -11.381  1.00  0.00    -0.337 OA
BRANCH  21  22
HETATM   22  C   LIG     1     -20.389 -16.540 -10.576  1.00  0.00     0.120 A 
HETATM   23  C   LIG     1     -21.190 -16.911  -9.499  1.00  0.00     0.104 A 
HETATM   24  N   LIG     1     -22.346 -16.262  -9.263  1.00  0.00    -0.250 NA
HETATM   25  C   LIG     1     -20.750 -17.972  -8.680  1.00  0.00     0.017 A 
HETATM   26  C   LIG     1     -23.095 -16.654  -8.206  1.00  0.00     0.031 A 
HETATM   27  C   LIG     1     -22.748 -17.680  -7.350  1.00  0.00     0.027 A 
HETATM   28  C   LIG     1     -24.369 -15.910  -7.981  1.00  0.00     0.070 C 
HETATM   29  C   LIG     1     -21.556 -18.345  -7.596  1.00  0.00     0.017 A 
HETATM   30  C   LIG     1     -19.538 -18.625  -8.955  1.00  0.00     0.048 A 
HETATM   31 CL   LIG     1     -18.931 -19.938  -7.997  1.00  0.00    -0.083 Cl
HETATM   32  C   LIG     1     -18.757 -18.235 -10.038  1.00  0.00     0.051 A 
HETATM   33  C   LIG     1     -19.182 -17.191 -10.850  1.00  0.00     0.071 A 
HETATM   34 CL   LIG     1     -18.201 -16.719 -12.188  1.00  0.00    -0.081 Cl
ENDBRANCH  21  22
ENDBRANCH  20  21
ENDBRANCH  18  20
ENDBRANCH   1  18
TORSDOF 9
ENDMDL
MODEL 2
REMARK VINA RESULT:      -9.8      1.923      2.687
REMARK  9 active torsions:
REMARK  status: ('A' for Active; 'I' for Inactive)
REMARK    1  A    between atoms: O_3  and  C_15 
REMARK    2  A    between atoms: O_3  and  C_24 
REMARK    3  A    between atoms: O_4  and  C_30 
REMARK    4  A    between atoms: O_4  and  C_32 
REMARK    5  A    between atoms: O_5  and  C_23 
REMARK    6  A    between atoms: N_11  and  C_22 
REMARK       I    between atoms: N_11  and  C_31 
REMARK    7  A    between atoms: N_12  and  C_28 
REMARK    8  A    between atoms: C_24  and  C_32 
REMARK    9  A    between atoms: C_30  and  C_31 
ROOT
HETATM    1  O   LIG     1     -20.540 -16.251 -14.678  1.00  0.00    -0.310 OA
ENDROOT
BRANCH   1   2
HETATM    2  C   LIG     1     -21.893 -15.839 -14.461  1.00  0.00     0.281 C 
BRANCH   2   3
HETATM    3  C   LIG     1     -22.747 -17.066 -14.232  1.00  0.00     0.246 C 
HETATM    4  O   LIG     1     -23.635 -17.058 -13.385  1.00  0.00    -0.271 OA
HETATM    5  N   LIG     1     -22.384 -18.106 -15.079  1.00  0.00    -0.323 N 
HETATM    6  H   LIG     1     -21.617 -17.938 -15.726  1.00  0.00     0.169 HD
BRANCH   5   7
HETATM    7  C   LIG     1     -22.957 -19.398 -15.152  1.00  0.00     0.068 A 
HETATM    8  C   LIG     1     -22.216 -20.526 -14.800  1.00  0.00     0.097 A 
HETATM    9  C   LIG     1     -22.794 -21.793 -14.877  1.00  0.00     0.075 A 
HETATM   10  C   LIG     1     -24.114 -21.932 -15.304  1.00  0.00     0.105 A 
HETATM   11  C   LIG     1     -24.857 -20.804 -15.655  1.00  0.00     0.038 A 
HETATM   12  C   LIG     1     -24.278 -19.537 -15.578  1.00  0.00     0.035 A 
BRANCH   8  13
HETATM   13  O   LIG     1     -20.923 -20.411 -14.381  1.00  0.00    -0.354 OA
HETATM   14  C   LIG     1     -20.294 -21.593 -13.894  1.00  0.00     0.210 C 
ENDBRANCH   8  13
BRANCH  10  15
HETATM   15  N   LIG     1     -24.704 -23.221 -15.384  1.00  0.00    -0.116 N 
HETATM   16  O   LIG     1     -23.973 -24.235 -15.271  1.00  0.00    -0.532 OA
HETATM   17  O   LIG     1     -25.943 -23.311 -15.564  1.00  0.00    -0.532 OA
ENDBRANCH  10  15
ENDBRANCH   5   7
ENDBRANCH   2   3
ENDBRANCH   1   2
BRANCH   1  18
HETATM   18  C   LIG     1     -19.616 -15.709 -13.831  1.00  0.00     0.283 C 
HETATM   19  O   LIG     1     -18.941 -14.711 -14.046  1.00  0.00    -0.263 OA
BRANCH  18  20
HETATM   20  C   LIG     1     -19.553 -16.541 -12.578  1.00  0.00     0.286 C 
BRANCH  20  21
HETATM   21  O   LIG     1     -19.576 -15.674 -11.450  1.00  0.00    -0.337 OA
BRANCH  21  22
HETATM   22  C   LIG     1     -20.690 -15.725 -10.655  1.00  0.00     0.120 A 
HETATM   23  C   LIG     1     -20.803 -16.753  -9.723  1.00  0.00     0.104 A 
HETATM   24  N   LIG     1     -19.827 -17.676  -9.615  1.00  0.00    -0.250 NA
HETATM   25  C   LIG     1     -21.957 -16.791  -8.913  1.00  0.00     0.017 A 
HETATM   26  C   LIG     1     -19.976 -18.659  -8.697  1.00  0.00     0.031 A 
HETATM   27  C   LIG     1     -21.068 -18.778  -7.860  1.00  0.00     0.027 A 
HETATM   28  C   LIG     1     -18.873 -19.659  -8.609  1.00  0.00     0.070 C 
HETATM   29  C   LIG     1     -22.071 -17.827  -7.975  1.00  0.00     0.017 A 
HETATM   30  C   LIG     1     -22.955 -15.813  -9.054  1.00  0.00     0.048 A 
HETATM   31 CL   LIG     1     -24.401 -15.790  -8.096  1.00  0.00    -0.083 Cl
HETATM   32  C   LIG     1     -22.817 -14.795  -9.993  1.00  0.00     0.051 A 
HETATM   33  C   LIG     1     -21.683 -14.751 -10.794  1.00  0.00     0.071 A 
HETATM   34 CL   LIG     1     -21.528 -13.483 -11.954  1.00  0.00    -0.081 Cl
ENDBRANCH  21  22
ENDBRANCH  20  21
ENDBRANCH  18  20
ENDBRANCH   1  18
TORSDOF 9
ENDMDL
MODEL 3
REMARK VINA RESULT:      -9.7      1.825      2.485
REMARK  9 active torsions:
REMARK  status: ('A' for Active; 'I' for Inactive)
REMARK    1  A    between atoms: O_3  and  C_15 
REMARK    2  A    between atoms: O_3  and  C_24 
REMARK    3  A    between atoms: O_4  and  C_30 
REMARK    4  A    between atoms: O_4  and  C_32 
REMARK    5  A    between atoms: O_5  and  C_23 
REMARK    6  A    between atoms: N_11  and  C_22 
REMARK       I    between atoms: N_11  and  C_31 
REMARK    7  A    between atoms: N_12  and  C_28 
REMARK    8  A    between atoms: C_24  and  C_32 
REMARK    9  A    between atoms: C_30  and  C_31 
ROOT
HETATM    1  O   LIG     1     -20.246 -16.357 -14.290  1.00  0.00    -0.310 OA
ENDROOT
BRANCH   1   2
HETATM    2  C   LIG     1     -21.582 -15.844 -14.242  1.00  0.00     0.281 C 
BRANCH   2   3
HETATM    3  C   LIG     1     -22.548 -17.004 -14.154  1.00  0.00     0.246 C 
HETATM    4  O   LIG     1     -23.591 -16.899 -13.515  1.00  0.00    -0.271 OA
HETATM    5  N   LIG     1     -22.090 -18.105 -14.866  1.00  0.00    -0.323 N 
HETATM    6  H   LIG     1     -21.196 -18.017 -15.342  1.00  0.00     0.169 HD
BRANCH   5   7
HETATM    7  C   LIG     1     -22.725 -19.362 -15.011  1.00  0.00     0.068 A 
HETATM    8  C   LIG     1     -22.059 -20.539 -14.668  1.00  0.00     0.097 A 
HETATM    9  C   LIG     1     -22.697 -21.770 -14.815  1.00  0.00     0.075 A 
HETATM   10  C   LIG     1     -24.001 -21.825 -15.306  1.00  0.00     0.105 A 
HETATM   11  C   LIG     1     -24.668 -20.649 -15.649  1.00  0.00     0.038 A 
HETATM   12  C   LIG     1     -24.030 -19.417 -15.501  1.00  0.00     0.035 A 
BRANCH   8  13
HETATM   13  O   LIG     1     -20.783 -20.506 -14.187  1.00  0.00    -0.354 OA
HETATM   14  C   LIG     1     -20.000 -21.686 -14.351  1.00  0.00     0.210 C 
ENDBRANCH   8  13
BRANCH  10  15
HETATM   15  N   LIG     1     -24.652 -23.078 -15.458  1.00  0.00    -0.116 N 
HETATM   16  O   LIG     1     -23.982 -24.132 -15.335  1.00  0.00    -0.532 OA
HETATM   17  O   LIG     1     -25.881 -23.096 -15.711  1.00  0.00    -0.532 OA
ENDBRANCH  10  15
ENDBRANCH   5   7
ENDBRANCH   2   3
ENDBRANCH   1   2
BRANCH   1  18
HETATM   18  C   LIG     1     -19.434 -15.982 -13.259  1.00  0.00     0.283 C 
HETATM   19  O   LIG     1     -18.792 -14.943 -13.190  1.00  0.00    -0.263 OA
BRANCH  18  20
HETATM   20  C   LIG     1     -19.449 -17.059 -12.207  1.00  0.00     0.286 C 
BRANCH  20  21
HETATM   21  O   LIG     1     -19.198 -16.465 -10.938  1.00  0.00    -0.337 OA
BRANCH  21  22
HETATM   22  C   LIG     1     -20.158 -16.637  -9.977  1.00  0.00     0.120 A 
HETATM   23  C   LIG     1     -21.099 -15.630  -9.781  1.00  0.00     0.104 A 
HETATM   24  N   LIG     1     -21.056 -14.511 -10.529  1.00  0.00    -0.250 NA
HETATM   25  C   LIG     1     -22.080 -15.822  -8.785  1.00  0.00     0.017 A 
HETATM   26  C   LIG     1     -21.990 -13.557 -10.307  1.00  0.00     0.031 A 
HETATM   27  C   LIG     1     -22.987 -13.656  -9.357  1.00  0.00     0.027 A 
HETATM   28  C   LIG     1     -21.907 -12.334 -11.158  1.00  0.00     0.070 C 
HETATM   29  C   LIG     1     -23.027 -14.809  -8.587  1.00  0.00     0.017 A 
HETATM   30  C   LIG     1     -22.094 -17.002  -8.022  1.00  0.00     0.048 A 
HETATM   31 CL   LIG     1     -23.266 -17.314  -6.782  1.00  0.00    -0.083 Cl
HETATM   32  C   LIG     1     -21.141 -17.993  -8.239  1.00  0.00     0.051 A 
HETATM   33  C   LIG     1     -20.172 -17.810  -9.217  1.00  0.00     0.071 A 
HETATM   34 CL   LIG     1     -18.999 -19.049  -9.472  1.00  0.00    -0.081 Cl
ENDBRANCH  21  22
ENDBRANCH  20  21
ENDBRANCH  18  20
ENDBRANCH   1  18
TORSDOF 9
ENDMDL
MODEL 4
REMARK VINA RESULT:      -9.7      1.918      2.640
REMARK  9 active torsions:
REMARK  status: ('A' for Active; 'I' for Inactive)
REMARK    1  A    between atoms: O_3  and  C_15 
REMARK    2  A    between atoms: O_3  and  C_24 
REMARK    3  A    between atoms: O_4  and  C_30 
REMARK    4  A    between atoms: O_4  and  C_32 
REMARK    5  A    between atoms: O_5  and  C_23 
REMARK    6  A    between atoms: N_11  and  C_22 
REMARK       I    between atoms: N_11  and  C_31 
REMARK    7  A    between atoms: N_12  and  C_28 
REMARK    8  A    between atoms: C_24  and  C_32 
REMARK    9  A    between atoms: C_30  and  C_31 
ROOT
HETATM    1  O   LIG     1     -20.569 -13.620 -13.347  1.00  0.00    -0.310 OA
ENDROOT
BRANCH   1   2
HETATM    2  C   LIG     1     -21.803 -13.275 -13.985  1.00  0.00     0.281 C 
BRANCH   2   3
HETATM    3  C   LIG     1     -22.267 -14.449 -14.819  1.00  0.00     0.246 C 
HETATM    4  O   LIG     1     -22.259 -14.384 -16.045  1.00  0.00    -0.271 OA
HETATM    5  N   LIG     1     -22.660 -15.517 -14.023  1.00  0.00    -0.323 N 
HETATM    6  H   LIG     1     -22.601 -15.397 -13.014  1.00  0.00     0.169 HD
BRANCH   5   7
HETATM    7  C   LIG     1     -23.147 -16.776 -14.449  1.00  0.00     0.068 A 
HETATM    8  C   LIG     1     -22.295 -17.876 -14.537  1.00  0.00     0.097 A 
HETATM    9  C   LIG     1     -22.790 -19.110 -14.958  1.00  0.00     0.075 A 
HETATM   10  C   LIG     1     -24.137 -19.245 -15.291  1.00  0.00     0.105 A 
HETATM   11  C   LIG     1     -24.991 -18.144 -15.202  1.00  0.00     0.038 A 
HETATM   12  C   LIG     1     -24.496 -16.910 -14.781  1.00  0.00     0.035 A 
BRANCH   8  13
HETATM   13  O   LIG     1     -20.974 -17.765 -14.217  1.00  0.00    -0.354 OA
HETATM   14  C   LIG     1     -20.302 -18.959 -13.823  1.00  0.00     0.210 C 
ENDBRANCH   8  13
BRANCH  10  15
HETATM   15  N   LIG     1     -24.642 -20.500 -15.721  1.00  0.00    -0.116 N 
HETATM   16  O   LIG     1     -25.211 -20.578 -16.836  1.00  0.00    -0.532 OA
HETATM   17  O   LIG     1     -24.506 -21.498 -14.972  1.00  0.00    -0.532 OA
ENDBRANCH  10  15
ENDBRANCH   5   7
ENDBRANCH   2   3
ENDBRANCH   1   2
BRANCH   1  18
HETATM   18  C   LIG     1     -20.335 -13.008 -12.149  1.00  0.00     0.283 C 
HETATM   19  O   LIG     1     -19.763 -11.939 -11.986  1.00  0.00    -0.263 OA
BRANCH  18  20
HETATM   20  C   LIG     1     -20.895 -13.865 -11.044  1.00  0.00     0.286 C 
BRANCH  20  21
HETATM   21  O   LIG     1     -21.080 -15.187 -11.536  1.00  0.00    -0.337 OA
BRANCH  21  22
HETATM   22  C   LIG     1     -20.559 -16.205 -10.783  1.00  0.00     0.120 A 
HETATM   23  C   LIG     1     -21.292 -16.683  -9.701  1.00  0.00     0.104 A 
HETATM   24  N   LIG     1     -22.492 -16.146  -9.409  1.00  0.00    -0.250 NA
HETATM   25  C   LIG     1     -20.739 -17.731  -8.935  1.00  0.00     0.017 A 
HETATM   26  C   LIG     1     -23.173 -16.639  -8.349  1.00  0.00     0.031 A 
HETATM   27  C   LIG     1     -22.714 -17.662  -7.543  1.00  0.00     0.027 A 
HETATM   28  C   LIG     1     -24.498 -16.017  -8.061  1.00  0.00     0.070 C 
HETATM   29  C   LIG     1     -21.478 -18.212  -7.846  1.00  0.00     0.017 A 
HETATM   30  C   LIG     1     -19.484 -18.266  -9.268  1.00  0.00     0.048 A 
HETATM   31 CL   LIG     1     -18.738 -19.555  -8.378  1.00  0.00    -0.083 Cl
HETATM   32  C   LIG     1     -18.772 -17.770 -10.356  1.00  0.00     0.051 A 
HETATM   33  C   LIG     1     -19.309 -16.738 -11.114  1.00  0.00     0.071 A 
HETATM   34 CL   LIG     1     -18.412 -16.134 -12.459  1.00  0.00    -0.081 Cl
ENDBRANCH  21  22
ENDBRANCH  20  21
ENDBRANCH  18  20
ENDBRANCH   1  18
TORSDOF 9
ENDMDL
MODEL 5
REMARK VINA RESULT:      -9.7      3.996      6.479
REMARK  9 active torsions:
REMARK  status: ('A' for Active; 'I' for Inactive)
REMARK    1  A    between atoms: O_3  and  C_15 
REMARK    2  A    between atoms: O_3  and  C_24 
REMARK    3  A    between atoms: O_4  and  C_30 
REMARK    4  A    between atoms: O_4  and  C_32 
REMARK    5  A    between atoms: O_5  and  C_23 
REMARK    6  A    between atoms: N_11  and  C_22 
REMARK       I    between atoms: N_11  and  C_31 
REMARK    7  A    between atoms: N_12  and  C_28 
REMARK    8  A    between atoms: C_24  and  C_32 
REMARK    9  A    between atoms: C_30  and  C_31 
ROOT
HETATM    1  O   LIG     1     -20.517 -15.440  -9.496  1.00  0.00    -0.310 OA
ENDROOT
BRANCH   1   2
HETATM    2  C   LIG     1     -21.270 -14.232  -9.645  1.00  0.00     0.281 C 
BRANCH   2   3
HETATM    3  C   LIG     1     -21.273 -13.834 -11.104  1.00  0.00     0.246 C 
HETATM    4  O   LIG     1     -20.302 -13.267 -11.597  1.00  0.00    -0.271 OA
HETATM    5  N   LIG     1     -22.457 -14.200 -11.731  1.00  0.00    -0.323 N 
HETATM    6  H   LIG     1     -23.162 -14.668 -11.167  1.00  0.00     0.169 HD
BRANCH   5   7
HETATM    7  C   LIG     1     -22.815 -13.993 -13.085  1.00  0.00     0.068 A 
HETATM    8  C   LIG     1     -22.819 -15.055 -13.990  1.00  0.00     0.097 A 
HETATM    9  C   LIG     1     -23.175 -14.836 -15.321  1.00  0.00     0.075 A 
HETATM   10  C   LIG     1     -23.526 -13.556 -15.747  1.00  0.00     0.105 A 
HETATM   11  C   LIG     1     -23.522 -12.493 -14.843  1.00  0.00     0.038 A 
HETATM   12  C   LIG     1     -23.166 -12.712 -13.511  1.00  0.00     0.035 A 
BRANCH   8  13
HETATM   13  O   LIG     1     -22.478 -16.314 -13.593  1.00  0.00    -0.354 OA
HETATM   14  C   LIG     1     -22.658 -17.363 -14.541  1.00  0.00     0.210 C 
ENDBRANCH   8  13
BRANCH  10  15
HETATM   15  N   LIG     1     -23.887 -13.331 -17.102  1.00  0.00    -0.116 N 
HETATM   16  O   LIG     1     -24.288 -12.193 -17.445  1.00  0.00    -0.532 OA
HETATM   17  O   LIG     1     -23.793 -14.278 -17.920  1.00  0.00    -0.532 OA
ENDBRANCH  10  15
ENDBRANCH   5   7
ENDBRANCH   2   3
ENDBRANCH   1   2
BRANCH   1  18
HETATM   18  C   LIG     1     -21.225 -16.527  -9.070  1.00  0.00     0.283 C 
HETATM   19  O   LIG     1     -22.401 -16.761  -9.314  1.00  0.00    -0.263 OA
BRANCH  18  20
HETATM   20  C   LIG     1     -20.324 -17.403  -8.240  1.00  0.00     0.286 C 
BRANCH  20  21
HETATM   21  O   LIG     1     -19.137 -17.670  -8.977  1.00  0.00    -0.337 OA
BRANCH  21  22
HETATM   22  C   LIG     1     -19.140 -18.785  -9.772  1.00  0.00     0.120 A 
HETATM   23  C   LIG     1     -19.141 -18.625 -11.155  1.00  0.00     0.104 A 
HETATM   24  N   LIG     1     -19.139 -17.389 -11.690  1.00  0.00    -0.250 NA
HETATM   25  C   LIG     1     -19.147 -19.784 -11.958  1.00  0.00     0.017 A 
HETATM   26  C   LIG     1     -19.140 -17.277 -13.039  1.00  0.00     0.031 A 
HETATM   27  C   LIG     1     -19.145 -18.351 -13.905  1.00  0.00     0.027 A 
HETATM   28  C   LIG     1     -19.137 -15.890 -13.591  1.00  0.00     0.070 C 
HETATM   29  C   LIG     1     -19.148 -19.622 -13.350  1.00  0.00     0.017 A 
HETATM   30  C   LIG     1     -19.150 -21.057 -11.365  1.00  0.00     0.048 A 
HETATM   31 CL   LIG     1     -19.155 -22.530 -12.283  1.00  0.00    -0.083 Cl
HETATM   32  C   LIG     1     -19.148 -21.190  -9.980  1.00  0.00     0.051 A 
HETATM   33  C   LIG     1     -19.144 -20.053  -9.182  1.00  0.00     0.071 A 
HETATM   34 CL   LIG     1     -19.143 -20.236  -7.466  1.00  0.00    -0.081 Cl
ENDBRANCH  21  22
ENDBRANCH  20  21
ENDBRANCH  18  20
ENDBRANCH   1  18
TORSDOF 9
ENDMDL
MODEL 6
REMARK VINA RESULT:      -9.4      2.143      3.792
REMARK  9 active torsions:
REMARK  status: ('A' for Active; 'I' for Inactive)
REMARK    1  A    between atoms: O_3  and  C_15 
REMARK    2  A    between atoms: O_3  and  C_24 
REMARK    3  A    between atoms: O_4  and  C_30 
REMARK    4  A    between atoms: O_4  and  C_32 
REMARK    5  A    between atoms: O_5  and  C_23 
REMARK    6  A    between atoms: N_11  and  C_22 
REMARK       I    between atoms: N_11  and  C_31 
REMARK    7  A    between atoms: N_12  and  C_28 
REMARK    8  A    between atoms: C_24  and  C_32 
REMARK    9  A    between atoms: C_30  and  C_31 
ROOT
HETATM    1  O   LIG     1     -19.234 -19.412 -12.164  1.00  0.00    -0.310 OA
ENDROOT
BRANCH   1   2
HETATM    2  C   LIG     1     -19.311 -19.391 -13.593  1.00  0.00     0.281 C 
BRANCH   2   3
HETATM    3  C   LIG     1     -20.242 -20.492 -14.048  1.00  0.00     0.246 C 
HETATM    4  O   LIG     1     -19.861 -21.659 -14.075  1.00  0.00    -0.271 OA
HETATM    5  N   LIG     1     -21.492 -19.994 -14.392  1.00  0.00    -0.323 N 
HETATM    6  H   LIG     1     -21.637 -18.991 -14.308  1.00  0.00     0.169 HD
BRANCH   5   7
HETATM    7  C   LIG     1     -22.612 -20.724 -14.858  1.00  0.00     0.068 A 
HETATM    8  C   LIG     1     -23.738 -20.062 -15.348  1.00  0.00     0.097 A 
HETATM    9  C   LIG     1     -24.834 -20.795 -15.804  1.00  0.00     0.075 A 
HETATM   10  C   LIG     1     -24.804 -22.188 -15.771  1.00  0.00     0.105 A 
HETATM   11  C   LIG     1     -23.678 -22.850 -15.281  1.00  0.00     0.038 A 
HETATM   12  C   LIG     1     -22.582 -22.118 -14.825  1.00  0.00     0.035 A 
BRANCH   8  13
HETATM   13  O   LIG     1     -23.787 -18.700 -15.387  1.00  0.00    -0.354 OA
HETATM   14  C   LIG     1     -25.056 -18.092 -15.157  1.00  0.00     0.210 C 
ENDBRANCH   8  13
BRANCH  10  15
HETATM   15  N   LIG     1     -25.919 -22.935 -16.233  1.00  0.00    -0.116 N 
HETATM   16  O   LIG     1     -26.763 -23.349 -15.402  1.00  0.00    -0.532 OA
HETATM   17  O   LIG     1     -26.031 -23.160 -17.463  1.00  0.00    -0.532 OA
ENDBRANCH  10  15
ENDBRANCH   5   7
ENDBRANCH   2   3
ENDBRANCH   1   2
BRANCH   1  18
HETATM   18  C   LIG     1     -18.895 -18.227 -11.575  1.00  0.00     0.283 C 
HETATM   19  O   LIG     1     -18.715 -17.163 -12.151  1.00  0.00    -0.263 OA
BRANCH  18  20
HETATM   20  C   LIG     1     -18.773 -18.436 -10.089  1.00  0.00     0.286 C 
BRANCH  20  21
HETATM   21  O   LIG     1     -19.117 -17.225  -9.425  1.00  0.00    -0.337 OA
BRANCH  21  22
HETATM   22  C   LIG     1     -20.367 -17.160  -8.869  1.00  0.00     0.120 A 
HETATM   23  C   LIG     1     -21.153 -16.037  -9.113  1.00  0.00     0.104 A 
HETATM   24  N   LIG     1     -20.681 -15.038  -9.883  1.00  0.00    -0.250 NA
HETATM   25  C   LIG     1     -22.437 -15.986  -8.531  1.00  0.00     0.017 A 
HETATM   26  C   LIG     1     -21.477 -13.964 -10.095  1.00  0.00     0.031 A 
HETATM   27  C   LIG     1     -22.746 -13.825  -9.570  1.00  0.00     0.027 A 
HETATM   28  C   LIG     1     -20.916 -12.881 -10.955  1.00  0.00     0.070 C 
HETATM   29  C   LIG     1     -23.228 -14.855  -8.776  1.00  0.00     0.017 A 
HETATM   30  C   LIG     1     -22.896 -17.046  -7.732  1.00  0.00     0.048 A 
HETATM   31 CL   LIG     1     -24.461 -17.060  -6.984  1.00  0.00    -0.083 Cl
HETATM   32  C   LIG     1     -22.090 -18.158  -7.505  1.00  0.00     0.051 A 
HETATM   33  C   LIG     1     -20.824 -18.215  -8.074  1.00  0.00     0.071 A 
HETATM   34 CL   LIG     1     -19.838 -19.601  -7.781  1.00  0.00    -0.081 Cl
ENDBRANCH  21  22
ENDBRANCH  20  21
ENDBRANCH  18  20
ENDBRANCH   1  18
TORSDOF 9
ENDMDL
MODEL 7
REMARK VINA RESULT:      -9.4      4.255      6.273
REMARK  9 active torsions:
REMARK  status: ('A' for Active; 'I' for Inactive)
REMARK    1  A    between atoms: O_3  and  C_15 
REMARK    2  A    between atoms: O_3  and  C_24 
REMARK    3  A    between atoms: O_4  and  C_30 
REMARK    4  A    between atoms: O_4  and  C_32 
REMARK    5  A    between atoms: O_5  and  C_23 
REMARK    6  A    between atoms: N_11  and  C_22 
REMARK       I    between atoms: N_11  and  C_31 
REMARK    7  A    between atoms: N_12  and  C_28 
REMARK    8  A    between atoms: C_24  and  C_32 
REMARK    9  A    between atoms: C_30  and  C_31 
ROOT
HETATM    1  O   LIG     1     -20.902 -14.212  -9.448  1.00  0.00    -0.310 OA
ENDROOT
BRANCH   1   2
HETATM    2  C   LIG     1     -21.939 -13.264  -9.718  1.00  0.00     0.281 C 
BRANCH   2   3
HETATM    3  C   LIG     1     -21.901 -12.901 -11.185  1.00  0.00     0.246 C 
HETATM    4  O   LIG     1     -21.171 -11.999 -11.585  1.00  0.00    -0.271 OA
HETATM    5  N   LIG     1     -22.755 -13.702 -11.932  1.00  0.00    -0.323 N 
HETATM    6  H   LIG     1     -23.291 -14.408 -11.434  1.00  0.00     0.169 HD
BRANCH   5   7
HETATM    7  C   LIG     1     -22.980 -13.654 -13.329  1.00  0.00     0.068 A 
HETATM    8  C   LIG     1     -22.793 -14.787 -14.120  1.00  0.00     0.097 A 
HETATM    9  C   LIG     1     -23.019 -14.724 -15.494  1.00  0.00     0.075 A 
HETATM   10  C   LIG     1     -23.434 -13.529 -16.079  1.00  0.00     0.105 A 
HETATM   11  C   LIG     1     -23.622 -12.394 -15.289  1.00  0.00     0.038 A 
HETATM   12  C   LIG     1     -23.396 -12.457 -13.913  1.00  0.00     0.035 A 
BRANCH   8  13
HETATM   13  O   LIG     1     -22.387 -15.966 -13.567  1.00  0.00    -0.354 OA
HETATM   14  C   LIG     1     -22.526 -17.137 -14.367  1.00  0.00     0.210 C 
ENDBRANCH   8  13
BRANCH  10  15
HETATM   15  N   LIG     1     -23.664 -13.463 -17.478  1.00  0.00    -0.116 N 
HETATM   16  O   LIG     1     -24.143 -12.412 -17.968  1.00  0.00    -0.532 OA
HETATM   17  O   LIG     1     -23.381 -14.459 -18.187  1.00  0.00    -0.532 OA
ENDBRANCH  10  15
ENDBRANCH   5   7
ENDBRANCH   2   3
ENDBRANCH   1   2
BRANCH   1  18
HETATM   18  C   LIG     1     -21.290 -15.521  -9.434  1.00  0.00     0.283 C 
HETATM   19  O   LIG     1     -22.360 -15.959  -9.834  1.00  0.00    -0.263 OA
BRANCH  18  20
HETATM   20  C   LIG     1     -20.184 -16.353  -8.839  1.00  0.00     0.286 C 
BRANCH  20  21
HETATM   21  O   LIG     1     -19.094 -16.389  -9.753  1.00  0.00    -0.337 OA
BRANCH  21  22
HETATM   22  C   LIG     1     -19.146 -17.337 -10.740  1.00  0.00     0.120 A 
HETATM   23  C   LIG     1     -19.106 -18.681 -10.382  1.00  0.00     0.104 A 
HETATM   24  N   LIG     1     -19.018 -19.032  -9.084  1.00  0.00    -0.250 NA
HETATM   25  C   LIG     1     -19.160 -19.645 -11.411  1.00  0.00     0.017 A 
HETATM   26  C   LIG     1     -18.982 -20.350  -8.779  1.00  0.00     0.031 A 
HETATM   27  C   LIG     1     -19.029 -21.363  -9.715  1.00  0.00     0.027 A 
HETATM   28  C   LIG     1     -18.885 -20.694  -7.330  1.00  0.00     0.070 C 
HETATM   29  C   LIG     1     -19.119 -20.998 -11.050  1.00  0.00     0.017 A 
HETATM   30  C   LIG     1     -19.251 -19.243 -12.754  1.00  0.00     0.048 A 
HETATM   31 CL   LIG     1     -19.322 -20.364 -14.075  1.00  0.00    -0.083 Cl
HETATM   32  C   LIG     1     -19.289 -17.891 -13.085  1.00  0.00     0.051 A 
HETATM   33  C   LIG     1     -19.236 -16.937 -12.076  1.00  0.00     0.071 A 
HETATM   34 CL   LIG     1     -19.284 -15.266 -12.504  1.00  0.00    -0.081 Cl
ENDBRANCH  21  22
ENDBRANCH  20  21
ENDBRANCH  18  20
ENDBRANCH   1  18
TORSDOF 9
ENDMDL
MODEL 8
REMARK VINA RESULT:      -9.2      2.981      8.255
REMARK  9 active torsions:
REMARK  status: ('A' for Active; 'I' for Inactive)
REMARK    1  A    between atoms: O_3  and  C_15 
REMARK    2  A    between atoms: O_3  and  C_24 
REMARK    3  A    between atoms: O_4  and  C_30 
REMARK    4  A    between atoms: O_4  and  C_32 
REMARK    5  A    between atoms: O_5  and  C_23 
REMARK    6  A    between atoms: N_11  and  C_22 
REMARK       I    between atoms: N_11  and  C_31 
REMARK    7  A    between atoms: N_12  and  C_28 
REMARK    8  A    between atoms: C_24  and  C_32 
REMARK    9  A    between atoms: C_30  and  C_31 
ROOT
HETATM    1  O   LIG     1     -19.023 -20.232 -11.237  1.00  0.00    -0.310 OA
ENDROOT
BRANCH   1   2
HETATM    2  C   LIG     1     -19.041 -19.901  -9.844  1.00  0.00     0.281 C 
BRANCH   2   3
HETATM    3  C   LIG     1     -19.144 -18.399  -9.699  1.00  0.00     0.246 C 
HETATM    4  O   LIG     1     -18.208 -17.751  -9.240  1.00  0.00    -0.271 OA
HETATM    5  N   LIG     1     -20.372 -17.927 -10.145  1.00  0.00    -0.323 N 
HETATM    6  H   LIG     1     -21.037 -18.610 -10.498  1.00  0.00     0.169 HD
BRANCH   5   7
HETATM    7  C   LIG     1     -20.823 -16.585 -10.164  1.00  0.00     0.068 A 
HETATM    8  C   LIG     1     -21.854 -16.169  -9.321  1.00  0.00     0.097 A 
HETATM    9  C   LIG     1     -22.287 -14.844  -9.352  1.00  0.00     0.075 A 
HETATM   10  C   LIG     1     -21.691 -13.935 -10.224  1.00  0.00     0.105 A 
HETATM   11  C   LIG     1     -20.660 -14.350 -11.067  1.00  0.00     0.038 A 
HETATM   12  C   LIG     1     -20.226 -15.676 -11.037  1.00  0.00     0.035 A 
BRANCH   8  13
HETATM   13  O   LIG     1     -22.451 -17.043  -8.462  1.00  0.00    -0.354 OA
HETATM   14  C   LIG     1     -22.045 -16.987  -7.097  1.00  0.00     0.210 C 
ENDBRANCH   8  13
BRANCH  10  15
HETATM   15  N   LIG     1     -22.132 -12.585 -10.257  1.00  0.00    -0.116 N 
HETATM   16  O   LIG     1     -23.279 -12.308  -9.829  1.00  0.00    -0.532 OA
HETATM   17  O   LIG     1     -21.362 -11.706 -10.713  1.00  0.00    -0.532 OA
ENDBRANCH  10  15
ENDBRANCH   5   7
ENDBRANCH   2   3
ENDBRANCH   1   2
BRANCH   1  18
HETATM   18  C   LIG     1     -19.130 -21.561 -11.527  1.00  0.00     0.283 C 
HETATM   19  O   LIG     1     -18.489 -22.465 -11.009  1.00  0.00    -0.263 OA
BRANCH  18  20
HETATM   20  C   LIG     1     -20.170 -21.746 -12.600  1.00  0.00     0.286 C 
BRANCH  20  21
HETATM   21  O   LIG     1     -19.838 -20.919 -13.710  1.00  0.00    -0.337 OA
BRANCH  21  22
HETATM   22  C   LIG     1     -20.757 -19.970 -14.069  1.00  0.00     0.120 A 
HETATM   23  C   LIG     1     -21.994 -20.383 -14.557  1.00  0.00     0.104 A 
HETATM   24  N   LIG     1     -22.270 -21.696 -14.669  1.00  0.00    -0.250 NA
HETATM   25  C   LIG     1     -22.928 -19.391 -14.923  1.00  0.00     0.017 A 
HETATM   26  C   LIG     1     -23.484 -22.055 -15.148  1.00  0.00     0.031 A 
HETATM   27  C   LIG     1     -24.461 -21.159 -15.531  1.00  0.00     0.027 A 
HETATM   28  C   LIG     1     -23.749 -23.520 -15.256  1.00  0.00     0.070 C 
HETATM   29  C   LIG     1     -24.172 -19.807 -15.415  1.00  0.00     0.017 A 
HETATM   30  C   LIG     1     -22.605 -18.030 -14.794  1.00  0.00     0.048 A 
HETATM   31 CL   LIG     1     -23.697 -16.753 -15.221  1.00  0.00    -0.083 Cl
HETATM   32  C   LIG     1     -21.361 -17.644 -14.303  1.00  0.00     0.051 A 
HETATM   33  C   LIG     1     -20.436 -18.615 -13.940  1.00  0.00     0.071 A 
HETATM   34 CL   LIG     1     -18.898 -18.119 -13.334  1.00  0.00    -0.081 Cl
ENDBRANCH  21  22
ENDBRANCH  20  21
ENDBRANCH  18  20
ENDBRANCH   1  18
TORSDOF 9
ENDMDL
MODEL 9
REMARK VINA RESULT:      -9.1      2.371      3.176
REMARK  9 active torsions:
REMARK  status: ('A' for Active; 'I' for Inactive)
REMARK    1  A    between atoms: O_3  and  C_15 
REMARK    2  A    between atoms: O_3  and  C_24 
REMARK    3  A    between atoms: O_4  and  C_30 
REMARK    4  A    between atoms: O_4  and  C_32 
REMARK    5  A    between atoms: O_5  and  C_23 
REMARK    6  A    between atoms: N_11  and  C_22 
REMARK       I    between atoms: N_11  and  C_31 
REMARK    7  A    between atoms: N_12  and  C_28 
REMARK    8  A    between atoms: C_24  and  C_32 
REMARK    9  A    between atoms: C_30  and  C_31 
ROOT
HETATM    1  O   LIG     1     -22.294 -15.984 -14.673  1.00  0.00    -0.310 OA
ENDROOT
BRANCH   1   2
HETATM    2  C   LIG     1     -23.551 -16.185 -15.328  1.00  0.00     0.281 C 
BRANCH   2   3
HETATM    3  C   LIG     1     -24.072 -17.559 -14.973  1.00  0.00     0.246 C 
HETATM    4  O   LIG     1     -24.804 -17.716 -14.000  1.00  0.00    -0.271 OA
HETATM    5  N   LIG     1     -23.624 -18.522 -15.868  1.00  0.00    -0.323 N 
HETATM    6  H   LIG     1     -23.018 -18.214 -16.625  1.00  0.00     0.169 HD
BRANCH   5   7
HETATM    7  C   LIG     1     -23.906 -19.909 -15.854  1.00  0.00     0.068 A 
HETATM    8  C   LIG     1     -23.061 -20.801 -15.194  1.00  0.00     0.097 A 
HETATM    9  C   LIG     1     -23.352 -22.165 -15.190  1.00  0.00     0.075 A 
HETATM   10  C   LIG     1     -24.489 -22.638 -15.844  1.00  0.00     0.105 A 
HETATM   11  C   LIG     1     -25.335 -21.746 -16.504  1.00  0.00     0.038 A 
HETATM   12  C   LIG     1     -25.044 -20.381 -16.509  1.00  0.00     0.035 A 
BRANCH   8  13
HETATM   13  O   LIG     1     -21.943 -20.359 -14.549  1.00  0.00    -0.354 OA
HETATM   14  C   LIG     1     -20.958 -21.335 -14.219  1.00  0.00     0.210 C 
ENDBRANCH   8  13
BRANCH  10  15
HETATM   15  N   LIG     1     -24.786 -24.026 -15.841  1.00  0.00    -0.116 N 
HETATM   16  O   LIG     1     -24.228 -24.768 -14.997  1.00  0.00    -0.532 OA
HETATM   17  O   LIG     1     -25.603 -24.473 -16.683  1.00  0.00    -0.532 OA
ENDBRANCH  10  15
ENDBRANCH   5   7
ENDBRANCH   2   3
ENDBRANCH   1   2
BRANCH   1  18
HETATM   18  C   LIG     1     -21.730 -14.752 -14.846  1.00  0.00     0.283 C 
HETATM   19  O   LIG     1     -21.574 -14.176 -15.914  1.00  0.00    -0.263 OA
BRANCH  18  20
HETATM   20  C   LIG     1     -21.325 -14.206 -13.503  1.00  0.00     0.286 C 
BRANCH  20  21
HETATM   21  O   LIG     1     -22.267 -14.639 -12.528  1.00  0.00    -0.337 OA
BRANCH  21  22
HETATM   22  C   LIG     1     -22.012 -14.293 -11.227  1.00  0.00     0.120 A 
HETATM   23  C   LIG     1     -21.195 -15.119 -10.461  1.00  0.00     0.104 A 
HETATM   24  N   LIG     1     -20.670 -16.237 -10.999  1.00  0.00    -0.250 NA
HETATM   25  C   LIG     1     -20.944 -14.748  -9.123  1.00  0.00     0.017 A 
HETATM   26  C   LIG     1     -19.882 -17.013 -10.219  1.00  0.00     0.031 A 
HETATM   27  C   LIG     1     -19.579 -16.732  -8.902  1.00  0.00     0.027 A 
HETATM   28  C   LIG     1     -19.321 -18.241 -10.855  1.00  0.00     0.070 C 
HETATM   29  C   LIG     1     -20.122 -15.581  -8.351  1.00  0.00     0.017 A 
HETATM   30  C   LIG     1     -21.509 -13.576  -8.594  1.00  0.00     0.048 A 
HETATM   31 CL   LIG     1     -21.247 -13.052  -6.961  1.00  0.00    -0.083 Cl
HETATM   32  C   LIG     1     -22.322 -12.767  -9.383  1.00  0.00     0.051 A 
HETATM   33  C   LIG     1     -22.574 -13.126 -10.701  1.00  0.00     0.071 A 
HETATM   34 CL   LIG     1     -23.584 -12.112 -11.664  1.00  0.00    -0.081 Cl
ENDBRANCH  21  22
ENDBRANCH  20  21
ENDBRANCH  18  20
ENDBRANCH   1  18
TORSDOF 9
ENDMDL
