MODEL 1
REMARK VINA RESULT:      -9.7      0.000      0.000
REMARK  1 active torsions:
REMARK  status: ('A' for Active; 'I' for Inactive)
REMARK    1  A    between atoms: O_4  and  C_17 
ROOT
HETATM    1  O   LIG     1     -23.056 -23.622 -15.152  1.00  0.00    -0.318 OA
HETATM    2  O   LIG     1     -24.612 -24.288 -16.838  1.00  0.00    -0.331 OA
HETATM    3  O   LIG     1     -24.832 -19.263 -15.313  1.00  0.00    -0.273 OA
HETATM    4  O   LIG     1     -23.769 -14.993 -14.742  1.00  0.00    -0.292 OA
HETATM    5  O   LIG     1     -25.733 -17.154 -15.407  1.00  0.00    -0.259 OA
HETATM    6  C   LIG     1     -25.052 -22.256 -15.576  1.00  0.00     0.105 A 
HETATM    7  C   LIG     1     -23.861 -21.457 -15.216  1.00  0.00     0.023 A 
HETATM    8  C   LIG     1     -24.453 -23.681 -15.534  1.00  0.00     0.284 A 
HETATM    9  C   LIG     1     -23.709 -20.088 -15.079  1.00  0.00     0.103 A 
HETATM   10  C   LIG     1     -22.469 -19.546 -14.716  1.00  0.00     0.039 A 
HETATM   11  C   LIG     1     -22.782 -22.291 -14.985  1.00  0.00     0.084 A 
HETATM   12  C   LIG     1     -22.377 -18.099 -14.591  1.00  0.00    -0.022 A 
HETATM   13  C   LIG     1     -21.144 -17.346 -14.214  1.00  0.00     0.048 A 
HETATM   14  C   LIG     1     -25.492 -22.165 -16.984  1.00  0.00     0.012 A 
HETATM   15  C   LIG     1     -23.456 -17.350 -14.822  1.00  0.00     0.092 A 
HETATM   16  C   LIG     1     -21.387 -20.415 -14.490  1.00  0.00     0.084 A 
HETATM   17  C   LIG     1     -21.580 -15.882 -14.226  1.00  0.00     0.089 A 
HETATM   18  C   LIG     1     -21.540 -21.799 -14.624  1.00  0.00     0.075 A 
HETATM   19  C   LIG     1     -23.031 -15.958 -14.613  1.00  0.00     0.166 A 
HETATM   20  C   LIG     1     -25.226 -23.314 -17.592  1.00  0.00     0.135 A 
HETATM   21  C   LIG     1     -24.766 -17.875 -15.201  1.00  0.00     0.302 A 
ENDROOT
BRANCH  16  22
HETATM   22  O   LIG     1     -20.147 -19.970 -14.131  1.00  0.00    -0.355 OA
HETATM   23  C   LIG     1     -19.506 -20.646 -13.052  1.00  0.00     0.210 C 
ENDBRANCH  16  22
TORSDOF 1
ENDMDL
