MODEL 1
REMARK VINA RESULT:      -7.5      0.000      0.000
REMARK  3 active torsions:
REMARK  status: ('A' for Active; 'I' for Inactive)
REMARK    1  A    between atoms: C_5  and  C_15 
REMARK    2  A    between atoms: C_15  and  C_16 
REMARK    3  A    between atoms: C_16  and  C_17 
ROOT
HETATM    1  O   LIG     1     -20.104 -16.105  -9.198  1.00  0.00    -0.287 OA
HETATM    2  O   LIG     1     -20.199 -16.271 -11.432  1.00  0.00    -0.238 OA
HETATM    3  N   LIG     1     -21.542 -14.659 -10.419  1.00  0.00    -0.300 N 
HETATM    4  C   LIG     1     -22.078 -14.055  -9.164  1.00  0.00     0.071 C 
HETATM    5  C   LIG     1     -20.952 -14.119  -8.099  1.00  0.00     0.047 C 
HETATM    6  C   LIG     1     -20.594 -15.592  -7.936  1.00  0.00     0.128 C 
HETATM    7  C   LIG     1     -23.318 -14.865  -8.692  1.00  0.00     0.021 C 
HETATM    8  C   LIG     1     -22.467 -12.570  -9.397  1.00  0.00     0.021 C 
HETATM    9  C   LIG     1     -21.764 -16.458  -7.460  1.00  0.00     0.030 C 
HETATM   10  C   LIG     1     -22.999 -16.321  -8.346  1.00  0.00     0.004 C 
HETATM   11  C   LIG     1     -23.284 -12.337 -10.662  1.00  0.00     0.004 C 
HETATM   12  C   LIG     1     -22.234 -14.366 -11.678  1.00  0.00     0.106 C 
HETATM   13  C   LIG     1     -22.536 -12.888 -11.864  1.00  0.00     0.024 C 
HETATM   14  C   LIG     1     -20.599 -15.705 -10.414  1.00  0.00     0.365 C 
ENDROOT
BRANCH   5  15
HETATM   15  C   LIG     1     -21.269 -13.456  -6.755  1.00  0.00     0.004 C 
BRANCH  15  16
HETATM   16  C   LIG     1     -20.474 -12.168  -6.578  1.00  0.00     0.000 C 
BRANCH  16  17
HETATM   17  C   LIG     1     -21.121 -11.267  -5.525  1.00  0.00     0.000 C 
HETATM   18  C   LIG     1     -20.287 -10.021  -5.271  1.00  0.00     0.000 C 
ENDBRANCH  16  17
ENDBRANCH  15  16
ENDBRANCH   5  15
TORSDOF 3
ENDMDL
