MODEL 1
REMARK VINA RESULT:      -7.7      0.000      0.000
REMARK  9 active torsions:
REMARK  status: ('A' for Active; 'I' for Inactive)
REMARK    1  A    between atoms: O_4  and  C_22 
REMARK    2  A    between atoms: O_5  and  C_21 
REMARK    3  A    between atoms: N_6  and  C_12 
REMARK    4  A    between atoms: N_7  and  C_15 
REMARK    5  A    between atoms: N_7  and  C_16 
REMARK    6  A    between atoms: N_8  and  N_9 
REMARK    7  A    between atoms: N_8  and  C_16 
REMARK    8  A    between atoms: C_12  and  C_15 
REMARK    9  A    between atoms: C_17  and  C_18 
ROOT
HETATM    1  N   LIG     1     -20.020 -20.740 -13.955  1.00  0.00    -0.254 N 
HETATM    2  H   LIG     1     -19.620 -20.254 -14.751  1.00  0.00     0.191 HD
ENDROOT
BRANCH   1   3
HETATM    3  N   LIG     1     -21.088 -21.545 -14.166  1.00  0.00    -0.184 NA
HETATM    4  C   LIG     1     -22.054 -20.977 -14.812  1.00  0.00     0.151 C 
BRANCH   4   5
HETATM    5  C   LIG     1     -23.300 -21.693 -15.137  1.00  0.00     0.003 A 
HETATM    6  C   LIG     1     -23.255 -23.080 -15.135  1.00  0.00     0.053 A 
HETATM    7  C   LIG     1     -24.408 -23.804 -15.436  1.00  0.00     0.099 A 
HETATM    8  C   LIG     1     -25.594 -23.133 -15.736  1.00  0.00     0.102 A 
HETATM    9  C   LIG     1     -25.627 -21.738 -15.734  1.00  0.00     0.059 A 
HETATM   10  C   LIG     1     -24.473 -21.015 -15.433  1.00  0.00     0.025 A 
HETATM   11 BR   LIG     1     -24.571 -19.119 -15.444  1.00  0.00    -0.050 Br
BRANCH   7  12
HETATM   12  O   LIG     1     -24.365 -25.166 -15.434  1.00  0.00    -0.358 OA
HETATM   13  H   LIG     1     -24.977 -25.496 -16.115  1.00  0.00     0.217 HD
ENDBRANCH   7  12
BRANCH   8  14
HETATM   14  O   LIG     1     -26.728 -23.829 -16.031  1.00  0.00    -0.353 OA
HETATM   15  C   LIG     1     -26.855 -24.327 -17.361  1.00  0.00     0.210 C 
ENDBRANCH   8  14
ENDBRANCH   4   5
ENDBRANCH   1   3
BRANCH   1  16
HETATM   16  C   LIG     1     -19.483 -20.582 -12.691  1.00  0.00     0.188 C 
HETATM   17  S   LIG     1     -19.435 -21.898 -11.649  1.00  0.00    -0.040 SA
BRANCH  16  18
HETATM   18  N   LIG     1     -19.020 -19.303 -12.393  1.00  0.00    -0.364 N 
HETATM   19  H   LIG     1     -18.495 -19.202 -11.530  1.00  0.00     0.162 HD
BRANCH  18  20
HETATM   20  C   LIG     1     -19.202 -18.115 -13.182  1.00  0.00     0.150 C 
BRANCH  20  21
HETATM   21  C   LIG     1     -19.111 -16.852 -12.349  1.00  0.00     0.254 C 
BRANCH  21  22
HETATM   22  N   LIG     1     -19.983 -15.785 -12.944  1.00  0.00    -0.066 N 
HETATM   23  C   LIG     1     -20.365 -16.095 -14.372  1.00  0.00     0.261 C 
HETATM   24  C   LIG     1     -21.286 -14.995 -14.870  1.00  0.00     0.195 C 
HETATM   25  O   LIG     1     -20.642 -13.723 -14.778  1.00  0.00    -0.388 OA
HETATM   26  C   LIG     1     -20.326 -13.400 -13.423  1.00  0.00     0.195 C 
HETATM   27  C   LIG     1     -19.354 -14.414 -12.845  1.00  0.00     0.261 C 
HETATM   28  H   LIG     1     -20.849 -15.761 -12.389  1.00  0.00     0.280 HD
ENDBRANCH  21  22
ENDBRANCH  20  21
ENDBRANCH  18  20
ENDBRANCH  16  18
ENDBRANCH   1  16
TORSDOF 9
ENDMDL
MODEL 2
REMARK VINA RESULT:      -7.5      6.067      7.293
REMARK  9 active torsions:
REMARK  status: ('A' for Active; 'I' for Inactive)
REMARK    1  A    between atoms: O_4  and  C_22 
REMARK    2  A    between atoms: O_5  and  C_21 
REMARK    3  A    between atoms: N_6  and  C_12 
REMARK    4  A    between atoms: N_7  and  C_15 
REMARK    5  A    between atoms: N_7  and  C_16 
REMARK    6  A    between atoms: N_8  and  N_9 
REMARK    7  A    between atoms: N_8  and  C_16 
REMARK    8  A    between atoms: C_12  and  C_15 
REMARK    9  A    between atoms: C_17  and  C_18 
ROOT
HETATM    1  N   LIG     1     -20.536 -15.940 -14.964  1.00  0.00    -0.254 N 
HETATM    2  H   LIG     1     -20.272 -16.528 -15.747  1.00  0.00     0.191 HD
ENDROOT
BRANCH   1   3
HETATM    3  N   LIG     1     -20.468 -16.466 -13.717  1.00  0.00    -0.184 NA
HETATM    4  C   LIG     1     -19.481 -17.282 -13.544  1.00  0.00     0.151 C 
BRANCH   4   5
HETATM    5  C   LIG     1     -19.242 -17.953 -12.254  1.00  0.00     0.003 A 
HETATM    6  C   LIG     1     -18.965 -17.146 -11.159  1.00  0.00     0.053 A 
HETATM    7  C   LIG     1     -18.732 -17.734  -9.917  1.00  0.00     0.099 A 
HETATM    8  C   LIG     1     -18.778 -19.122  -9.781  1.00  0.00     0.102 A 
HETATM    9  C   LIG     1     -19.058 -19.922 -10.889  1.00  0.00     0.059 A 
HETATM   10  C   LIG     1     -19.291 -19.334 -12.132  1.00  0.00     0.025 A 
HETATM   11 BR   LIG     1     -19.668 -20.467 -13.608  1.00  0.00    -0.050 Br
BRANCH   7  12
HETATM   12  O   LIG     1     -18.460 -16.942  -8.841  1.00  0.00    -0.358 OA
HETATM   13  H   LIG     1     -19.136 -17.105  -8.160  1.00  0.00     0.217 HD
ENDBRANCH   7  12
BRANCH   8  14
HETATM   14  O   LIG     1     -18.553 -19.708  -8.572  1.00  0.00    -0.353 OA
HETATM   15  C   LIG     1     -19.694 -20.171  -7.854  1.00  0.00     0.210 C 
ENDBRANCH   8  14
ENDBRANCH   4   5
ENDBRANCH   1   3
BRANCH   1  16
HETATM   16  C   LIG     1     -20.953 -14.639 -15.168  1.00  0.00     0.188 C 
HETATM   17  S   LIG     1     -22.469 -14.356 -15.832  1.00  0.00    -0.040 SA
BRANCH  16  18
HETATM   18  N   LIG     1     -20.043 -13.654 -14.794  1.00  0.00    -0.364 N 
HETATM   19  H   LIG     1     -19.537 -13.195 -15.545  1.00  0.00     0.162 HD
BRANCH  18  20
HETATM   20  C   LIG     1     -19.750 -13.215 -13.456  1.00  0.00     0.150 C 
BRANCH  20  21
HETATM   21  C   LIG     1     -21.007 -12.960 -12.647  1.00  0.00     0.254 C 
BRANCH  21  22
HETATM   22  N   LIG     1     -21.146 -14.006 -11.579  1.00  0.00    -0.066 N 
HETATM   23  C   LIG     1     -22.427 -14.795 -11.720  1.00  0.00     0.261 C 
HETATM   24  C   LIG     1     -22.455 -15.859 -10.637  1.00  0.00     0.195 C 
HETATM   25  O   LIG     1     -22.362 -15.260  -9.343  1.00  0.00    -0.388 OA
HETATM   26  C   LIG     1     -21.129 -14.557  -9.186  1.00  0.00     0.195 C 
HETATM   27  C   LIG     1     -21.028 -13.423 -10.190  1.00  0.00     0.261 C 
HETATM   28  H   LIG     1     -20.363 -14.663 -11.700  1.00  0.00     0.280 HD
ENDBRANCH  21  22
ENDBRANCH  20  21
ENDBRANCH  18  20
ENDBRANCH  16  18
ENDBRANCH   1  16
TORSDOF 9
ENDMDL
MODEL 3
REMARK VINA RESULT:      -7.5      5.065      6.956
REMARK  9 active torsions:
REMARK  status: ('A' for Active; 'I' for Inactive)
REMARK    1  A    between atoms: O_4  and  C_22 
REMARK    2  A    between atoms: O_5  and  C_21 
REMARK    3  A    between atoms: N_6  and  C_12 
REMARK    4  A    between atoms: N_7  and  C_15 
REMARK    5  A    between atoms: N_7  and  C_16 
REMARK    6  A    between atoms: N_8  and  N_9 
REMARK    7  A    between atoms: N_8  and  C_16 
REMARK    8  A    between atoms: C_12  and  C_15 
REMARK    9  A    between atoms: C_17  and  C_18 
ROOT
HETATM    1  N   LIG     1     -20.055 -15.924  -7.816  1.00  0.00    -0.254 N 
HETATM    2  H   LIG     1     -19.102 -15.637  -7.618  1.00  0.00     0.191 HD
ENDROOT
BRANCH   1   3
HETATM    3  N   LIG     1     -20.252 -16.909  -8.725  1.00  0.00    -0.184 NA
HETATM    4  C   LIG     1     -19.161 -17.367  -9.248  1.00  0.00     0.151 C 
BRANCH   4   5
HETATM    5  C   LIG     1     -19.173 -18.441 -10.256  1.00  0.00     0.003 A 
HETATM    6  C   LIG     1     -19.191 -18.060 -11.591  1.00  0.00     0.053 A 
HETATM    7  C   LIG     1     -19.202 -19.040 -12.582  1.00  0.00     0.099 A 
HETATM    8  C   LIG     1     -19.194 -20.390 -12.230  1.00  0.00     0.102 A 
HETATM    9  C   LIG     1     -19.176 -20.760 -10.885  1.00  0.00     0.059 A 
HETATM   10  C   LIG     1     -19.165 -19.780  -9.893  1.00  0.00     0.025 A 
HETATM   11 BR   LIG     1     -19.140 -20.335  -8.078  1.00  0.00    -0.050 Br
BRANCH   7  12
HETATM   12  O   LIG     1     -19.219 -18.667 -13.893  1.00  0.00    -0.358 OA
HETATM   13  H   LIG     1     -19.092 -19.461 -14.442  1.00  0.00     0.217 HD
ENDBRANCH   7  12
BRANCH   8  14
HETATM   14  O   LIG     1     -19.204 -21.357 -13.190  1.00  0.00    -0.353 OA
HETATM   15  C   LIG     1     -20.443 -21.599 -13.853  1.00  0.00     0.210 C 
ENDBRANCH   8  14
ENDBRANCH   4   5
ENDBRANCH   1   3
BRANCH   1  16
HETATM   16  C   LIG     1     -21.120 -15.324  -7.172  1.00  0.00     0.188 C 
HETATM   17  S   LIG     1     -22.507 -16.220  -6.867  1.00  0.00    -0.040 SA
BRANCH  16  18
HETATM   18  N   LIG     1     -20.934 -13.988  -6.827  1.00  0.00    -0.364 N 
HETATM   19  H   LIG     1     -20.778 -13.792  -5.843  1.00  0.00     0.162 HD
BRANCH  18  20
HETATM   20  C   LIG     1     -20.934 -12.860  -7.719  1.00  0.00     0.150 C 
BRANCH  20  21
HETATM   21  C   LIG     1     -21.925 -13.024  -8.855  1.00  0.00     0.254 C 
BRANCH  21  22
HETATM   22  N   LIG     1     -21.197 -13.388 -10.117  1.00  0.00    -0.066 N 
HETATM   23  C   LIG     1     -20.994 -12.195 -11.020  1.00  0.00     0.261 C 
HETATM   24  C   LIG     1     -20.207 -12.645 -12.239  1.00  0.00     0.195 C 
HETATM   25  O   LIG     1     -20.898 -13.693 -12.921  1.00  0.00    -0.388 OA
HETATM   26  C   LIG     1     -21.046 -14.844 -12.089  1.00  0.00     0.195 C 
HETATM   27  C   LIG     1     -21.878 -14.513 -10.862  1.00  0.00     0.261 C 
HETATM   28  H   LIG     1     -20.267 -13.728  -9.838  1.00  0.00     0.280 HD
ENDBRANCH  21  22
ENDBRANCH  20  21
ENDBRANCH  18  20
ENDBRANCH  16  18
ENDBRANCH   1  16
TORSDOF 9
ENDMDL
MODEL 4
REMARK VINA RESULT:      -7.4      5.552      7.035
REMARK  9 active torsions:
REMARK  status: ('A' for Active; 'I' for Inactive)
REMARK    1  A    between atoms: O_4  and  C_22 
REMARK    2  A    between atoms: O_5  and  C_21 
REMARK    3  A    between atoms: N_6  and  C_12 
REMARK    4  A    between atoms: N_7  and  C_15 
REMARK    5  A    between atoms: N_7  and  C_16 
REMARK    6  A    between atoms: N_8  and  N_9 
REMARK    7  A    between atoms: N_8  and  C_16 
REMARK    8  A    between atoms: C_12  and  C_15 
REMARK    9  A    between atoms: C_17  and  C_18 
ROOT
HETATM    1  N   LIG     1     -19.436 -14.264 -12.495  1.00  0.00    -0.254 N 
HETATM    2  H   LIG     1     -18.496 -13.981 -12.240  1.00  0.00     0.191 HD
ENDROOT
BRANCH   1   3
HETATM    3  N   LIG     1     -19.787 -15.560 -12.310  1.00  0.00    -0.184 NA
HETATM    4  C   LIG     1     -18.804 -16.392 -12.424  1.00  0.00     0.151 C 
BRANCH   4   5
HETATM    5  C   LIG     1     -18.989 -17.844 -12.255  1.00  0.00     0.003 A 
HETATM    6  C   LIG     1     -19.230 -18.590 -13.400  1.00  0.00     0.053 A 
HETATM    7  C   LIG     1     -19.413 -19.968 -13.293  1.00  0.00     0.099 A 
HETATM    8  C   LIG     1     -19.352 -20.586 -12.043  1.00  0.00     0.102 A 
HETATM    9  C   LIG     1     -19.109 -19.824 -10.900  1.00  0.00     0.059 A 
HETATM   10  C   LIG     1     -18.926 -18.445 -11.007  1.00  0.00     0.025 A 
HETATM   11 BR   LIG     1     -18.598 -17.455  -9.422  1.00  0.00    -0.050 Br
BRANCH   7  12
HETATM   12  O   LIG     1     -19.649 -20.702 -14.416  1.00  0.00    -0.358 OA
HETATM   13  H   LIG     1     -18.801 -21.055 -14.739  1.00  0.00     0.217 HD
ENDBRANCH   7  12
BRANCH   8  14
HETATM   14  O   LIG     1     -19.528 -21.932 -11.926  1.00  0.00    -0.353 OA
HETATM   15  C   LIG     1     -18.745 -22.604 -10.942  1.00  0.00     0.210 C 
ENDBRANCH   8  14
ENDBRANCH   4   5
ENDBRANCH   1   3
BRANCH   1  16
HETATM   16  C   LIG     1     -20.330 -13.349 -13.017  1.00  0.00     0.188 C 
HETATM   17  S   LIG     1     -21.003 -13.630 -14.530  1.00  0.00    -0.040 SA
BRANCH  16  18
HETATM   18  N   LIG     1     -20.595 -12.246 -12.212  1.00  0.00    -0.364 N 
HETATM   19  H   LIG     1     -20.195 -11.361 -12.510  1.00  0.00     0.162 HD
BRANCH  18  20
HETATM   20  C   LIG     1     -21.381 -12.226 -11.008  1.00  0.00     0.150 C 
BRANCH  20  21
HETATM   21  C   LIG     1     -22.346 -13.394 -10.932  1.00  0.00     0.254 C 
BRANCH  21  22
HETATM   22  N   LIG     1     -21.848 -14.402  -9.937  1.00  0.00    -0.066 N 
HETATM   23  C   LIG     1     -22.872 -15.476  -9.656  1.00  0.00     0.261 C 
HETATM   24  C   LIG     1     -22.263 -16.474  -8.686  1.00  0.00     0.195 C 
HETATM   25  O   LIG     1     -21.862 -15.821  -7.480  1.00  0.00    -0.388 OA
HETATM   26  C   LIG     1     -20.855 -14.840  -7.734  1.00  0.00     0.195 C 
HETATM   27  C   LIG     1     -21.386 -13.753  -8.652  1.00  0.00     0.261 C 
HETATM   28  H   LIG     1     -21.027 -14.858 -10.358  1.00  0.00     0.280 HD
ENDBRANCH  21  22
ENDBRANCH  20  21
ENDBRANCH  18  20
ENDBRANCH  16  18
ENDBRANCH   1  16
TORSDOF 9
ENDMDL
MODEL 5
REMARK VINA RESULT:      -7.3      6.558      7.836
REMARK  9 active torsions:
REMARK  status: ('A' for Active; 'I' for Inactive)
REMARK    1  A    between atoms: O_4  and  C_22 
REMARK    2  A    between atoms: O_5  and  C_21 
REMARK    3  A    between atoms: N_6  and  C_12 
REMARK    4  A    between atoms: N_7  and  C_15 
REMARK    5  A    between atoms: N_7  and  C_16 
REMARK    6  A    between atoms: N_8  and  N_9 
REMARK    7  A    between atoms: N_8  and  C_16 
REMARK    8  A    between atoms: C_12  and  C_15 
REMARK    9  A    between atoms: C_17  and  C_18 
ROOT
HETATM    1  N   LIG     1     -18.319 -16.140 -11.907  1.00  0.00    -0.254 N 
HETATM    2  H   LIG     1     -17.506 -15.595 -11.638  1.00  0.00     0.191 HD
ENDROOT
BRANCH   1   3
HETATM    3  N   LIG     1     -19.125 -15.648 -12.879  1.00  0.00    -0.184 NA
HETATM    4  C   LIG     1     -20.084 -14.901 -12.438  1.00  0.00     0.151 C 
BRANCH   4   5
HETATM    5  C   LIG     1     -21.063 -14.275 -13.344  1.00  0.00     0.003 A 
HETATM    6  C   LIG     1     -20.956 -14.568 -14.696  1.00  0.00     0.053 A 
HETATM    7  C   LIG     1     -21.859 -14.001 -15.593  1.00  0.00     0.099 A 
HETATM    8  C   LIG     1     -22.860 -13.147 -15.130  1.00  0.00     0.102 A 
HETATM    9  C   LIG     1     -22.958 -12.860 -13.768  1.00  0.00     0.059 A 
HETATM   10  C   LIG     1     -22.054 -13.428 -12.871  1.00  0.00     0.025 A 
HETATM   11 BR   LIG     1     -22.230 -13.007 -11.028  1.00  0.00    -0.050 Br
BRANCH   7  12
HETATM   12  O   LIG     1     -21.754 -14.288 -16.921  1.00  0.00    -0.358 OA
HETATM   13  H   LIG     1     -22.443 -14.936 -17.152  1.00  0.00     0.217 HD
ENDBRANCH   7  12
BRANCH   8  14
HETATM   14  O   LIG     1     -23.750 -12.587 -15.997  1.00  0.00    -0.353 OA
HETATM   15  C   LIG     1     -25.027 -13.210 -16.108  1.00  0.00     0.210 C 
ENDBRANCH   8  14
ENDBRANCH   4   5
ENDBRANCH   1   3
BRANCH   1  16
HETATM   16  C   LIG     1     -18.591 -17.350 -11.298  1.00  0.00     0.188 C 
HETATM   17  S   LIG     1     -19.057 -18.658 -12.242  1.00  0.00    -0.040 SA
BRANCH  16  18
HETATM   18  N   LIG     1     -18.448 -17.367  -9.914  1.00  0.00    -0.364 N 
HETATM   19  H   LIG     1     -17.590 -17.773  -9.552  1.00  0.00     0.162 HD
BRANCH  18  20
HETATM   20  C   LIG     1     -19.384 -16.866  -8.944  1.00  0.00     0.150 C 
BRANCH  20  21
HETATM   21  C   LIG     1     -20.552 -17.811  -8.730  1.00  0.00     0.254 C 
BRANCH  21  22
HETATM   22  N   LIG     1     -21.696 -17.071  -8.100  1.00  0.00    -0.066 N 
HETATM   23  C   LIG     1     -22.305 -17.839  -6.951  1.00  0.00     0.261 C 
HETATM   24  C   LIG     1     -23.413 -16.994  -6.345  1.00  0.00     0.195 C 
HETATM   25  O   LIG     1     -24.399 -16.680  -7.331  1.00  0.00    -0.388 OA
HETATM   26  C   LIG     1     -23.839 -15.907  -8.394  1.00  0.00     0.195 C 
HETATM   27  C   LIG     1     -22.755 -16.692  -9.111  1.00  0.00     0.261 C 
HETATM   28  H   LIG     1     -21.314 -16.195  -7.720  1.00  0.00     0.280 HD
ENDBRANCH  21  22
ENDBRANCH  20  21
ENDBRANCH  18  20
ENDBRANCH  16  18
ENDBRANCH   1  16
TORSDOF 9
ENDMDL
MODEL 6
REMARK VINA RESULT:      -7.3      4.616      7.509
REMARK  9 active torsions:
REMARK  status: ('A' for Active; 'I' for Inactive)
REMARK    1  A    between atoms: O_4  and  C_22 
REMARK    2  A    between atoms: O_5  and  C_21 
REMARK    3  A    between atoms: N_6  and  C_12 
REMARK    4  A    between atoms: N_7  and  C_15 
REMARK    5  A    between atoms: N_7  and  C_16 
REMARK    6  A    between atoms: N_8  and  N_9 
REMARK    7  A    between atoms: N_8  and  C_16 
REMARK    8  A    between atoms: C_12  and  C_15 
REMARK    9  A    between atoms: C_17  and  C_18 
ROOT
HETATM    1  N   LIG     1     -21.600 -16.558 -10.455  1.00  0.00    -0.254 N 
HETATM    2  H   LIG     1     -22.046 -17.444 -10.244  1.00  0.00     0.191 HD
ENDROOT
BRANCH   1   3
HETATM    3  N   LIG     1     -22.235 -15.706 -11.296  1.00  0.00    -0.184 NA
HETATM    4  C   LIG     1     -22.193 -16.065 -12.538  1.00  0.00     0.151 C 
BRANCH   4   5
HETATM    5  C   LIG     1     -22.828 -15.267 -13.601  1.00  0.00     0.003 A 
HETATM    6  C   LIG     1     -22.800 -13.886 -13.462  1.00  0.00     0.053 A 
HETATM    7  C   LIG     1     -23.388 -13.087 -14.442  1.00  0.00     0.099 A 
HETATM    8  C   LIG     1     -23.996 -13.676 -15.550  1.00  0.00     0.102 A 
HETATM    9  C   LIG     1     -24.017 -15.066 -15.678  1.00  0.00     0.059 A 
HETATM   10  C   LIG     1     -23.430 -15.864 -14.698  1.00  0.00     0.025 A 
HETATM   11 BR   LIG     1     -23.485 -17.749 -14.921  1.00  0.00    -0.050 Br
BRANCH   7  12
HETATM   12  O   LIG     1     -23.360 -11.732 -14.306  1.00  0.00    -0.358 OA
HETATM   13  H   LIG     1     -24.160 -11.453 -13.826  1.00  0.00     0.217 HD
ENDBRANCH   7  12
BRANCH   8  14
HETATM   14  O   LIG     1     -24.573 -12.906 -16.515  1.00  0.00    -0.353 OA
HETATM   15  C   LIG     1     -24.037 -13.008 -17.832  1.00  0.00     0.210 C 
ENDBRANCH   8  14
ENDBRANCH   4   5
ENDBRANCH   1   3
BRANCH   1  16
HETATM   16  C   LIG     1     -20.379 -16.231  -9.897  1.00  0.00     0.188 C 
HETATM   17  S   LIG     1     -20.308 -15.789  -8.279  1.00  0.00    -0.040 SA
BRANCH  16  18
HETATM   18  N   LIG     1     -19.289 -16.302 -10.759  1.00  0.00    -0.364 N 
HETATM   19  H   LIG     1     -19.029 -15.441 -11.231  1.00  0.00     0.162 HD
BRANCH  18  20
HETATM   20  C   LIG     1     -18.490 -17.462 -11.046  1.00  0.00     0.150 C 
BRANCH  20  21
HETATM   21  C   LIG     1     -18.942 -18.175 -12.306  1.00  0.00     0.254 C 
BRANCH  21  22
HETATM   22  N   LIG     1     -18.851 -19.661 -12.112  1.00  0.00    -0.066 N 
HETATM   23  C   LIG     1     -19.733 -20.415 -13.078  1.00  0.00     0.261 C 
HETATM   24  C   LIG     1     -19.535 -21.904 -12.844  1.00  0.00     0.195 C 
HETATM   25  O   LIG     1     -19.849 -22.243 -11.492  1.00  0.00    -0.388 OA
HETATM   26  C   LIG     1     -18.982 -21.573 -10.576  1.00  0.00     0.195 C 
HETATM   27  C   LIG     1     -19.149 -20.068 -10.687  1.00  0.00     0.261 C 
HETATM   28  H   LIG     1     -17.877 -19.929 -12.306  1.00  0.00     0.280 HD
ENDBRANCH  21  22
ENDBRANCH  20  21
ENDBRANCH  18  20
ENDBRANCH  16  18
ENDBRANCH   1  16
TORSDOF 9
ENDMDL
MODEL 7
REMARK VINA RESULT:      -7.3      4.671      7.836
REMARK  9 active torsions:
REMARK  status: ('A' for Active; 'I' for Inactive)
REMARK    1  A    between atoms: O_4  and  C_22 
REMARK    2  A    between atoms: O_5  and  C_21 
REMARK    3  A    between atoms: N_6  and  C_12 
REMARK    4  A    between atoms: N_7  and  C_15 
REMARK    5  A    between atoms: N_7  and  C_16 
REMARK    6  A    between atoms: N_8  and  N_9 
REMARK    7  A    between atoms: N_8  and  C_16 
REMARK    8  A    between atoms: C_12  and  C_15 
REMARK    9  A    between atoms: C_17  and  C_18 
ROOT
HETATM    1  N   LIG     1     -20.558 -16.861  -9.776  1.00  0.00    -0.254 N 
HETATM    2  H   LIG     1     -19.572 -16.740  -9.983  1.00  0.00     0.191 HD
ENDROOT
BRANCH   1   3
HETATM    3  N   LIG     1     -21.459 -16.212 -10.553  1.00  0.00    -0.184 NA
HETATM    4  C   LIG     1     -20.935 -15.580 -11.551  1.00  0.00     0.151 C 
BRANCH   4   5
HETATM    5  C   LIG     1     -21.755 -14.816 -12.507  1.00  0.00     0.003 A 
HETATM    6  C   LIG     1     -22.109 -13.522 -12.149  1.00  0.00     0.053 A 
HETATM    7  C   LIG     1     -22.885 -12.759 -13.021  1.00  0.00     0.099 A 
HETATM    8  C   LIG     1     -23.299 -13.296 -14.239  1.00  0.00     0.102 A 
HETATM    9  C   LIG     1     -22.937 -14.598 -14.587  1.00  0.00     0.059 A 
HETATM   10  C   LIG     1     -22.161 -15.362 -13.716  1.00  0.00     0.025 A 
HETATM   11 BR   LIG     1     -21.695 -17.127 -14.236  1.00  0.00    -0.050 Br
BRANCH   7  12
HETATM   12  O   LIG     1     -23.232 -11.489 -12.670  1.00  0.00    -0.358 OA
HETATM   13  H   LIG     1     -22.536 -11.126 -12.094  1.00  0.00     0.217 HD
ENDBRANCH   7  12
BRANCH   8  14
HETATM   14  O   LIG     1     -24.057 -12.560 -15.100  1.00  0.00    -0.353 OA
HETATM   15  C   LIG     1     -24.932 -13.276 -15.968  1.00  0.00     0.210 C 
ENDBRANCH   8  14
ENDBRANCH   4   5
ENDBRANCH   1   3
BRANCH   1  16
HETATM   16  C   LIG     1     -20.965 -17.668  -8.731  1.00  0.00     0.188 C 
HETATM   17  S   LIG     1     -22.459 -17.394  -8.016  1.00  0.00    -0.040 SA
BRANCH  16  18
HETATM   18  N   LIG     1     -20.065 -18.662  -8.358  1.00  0.00    -0.364 N 
HETATM   19  H   LIG     1     -20.257 -19.141  -7.483  1.00  0.00     0.162 HD
BRANCH  18  20
HETATM   20  C   LIG     1     -18.899 -19.086  -9.084  1.00  0.00     0.150 C 
BRANCH  20  21
HETATM   21  C   LIG     1     -18.945 -20.561  -9.436  1.00  0.00     0.254 C 
BRANCH  21  22
HETATM   22  N   LIG     1     -18.883 -20.731 -10.926  1.00  0.00    -0.066 N 
HETATM   23  C   LIG     1     -19.308 -19.481 -11.659  1.00  0.00     0.261 C 
HETATM   24  C   LIG     1     -19.162 -19.728 -13.151  1.00  0.00     0.195 C 
HETATM   25  O   LIG     1     -19.951 -20.850 -13.552  1.00  0.00    -0.388 OA
HETATM   26  C   LIG     1     -19.517 -22.045 -12.901  1.00  0.00     0.195 C 
HETATM   27  C   LIG     1     -19.682 -21.925 -11.396  1.00  0.00     0.261 C 
HETATM   28  H   LIG     1     -17.899 -20.912 -11.166  1.00  0.00     0.280 HD
ENDBRANCH  21  22
ENDBRANCH  20  21
ENDBRANCH  18  20
ENDBRANCH  16  18
ENDBRANCH   1  16
TORSDOF 9
ENDMDL
MODEL 8
REMARK VINA RESULT:      -7.1      5.052      6.589
REMARK  9 active torsions:
REMARK  status: ('A' for Active; 'I' for Inactive)
REMARK    1  A    between atoms: O_4  and  C_22 
REMARK    2  A    between atoms: O_5  and  C_21 
REMARK    3  A    between atoms: N_6  and  C_12 
REMARK    4  A    between atoms: N_7  and  C_15 
REMARK    5  A    between atoms: N_7  and  C_16 
REMARK    6  A    between atoms: N_8  and  N_9 
REMARK    7  A    between atoms: N_8  and  C_16 
REMARK    8  A    between atoms: C_12  and  C_15 
REMARK    9  A    between atoms: C_17  and  C_18 
ROOT
HETATM    1  N   LIG     1     -20.007 -15.592  -8.253  1.00  0.00    -0.254 N 
HETATM    2  H   LIG     1     -19.286 -15.615  -7.539  1.00  0.00     0.191 HD
ENDROOT
BRANCH   1   3
HETATM    3  N   LIG     1     -20.191 -16.698  -9.014  1.00  0.00    -0.184 NA
HETATM    4  C   LIG     1     -19.179 -16.994  -9.762  1.00  0.00     0.151 C 
BRANCH   4   5
HETATM    5  C   LIG     1     -19.190 -18.163 -10.659  1.00  0.00     0.003 A 
HETATM    6  C   LIG     1     -19.174 -19.419 -10.068  1.00  0.00     0.053 A 
HETATM    7  C   LIG     1     -19.183 -20.556 -10.875  1.00  0.00     0.099 A 
HETATM    8  C   LIG     1     -19.210 -20.426 -12.263  1.00  0.00     0.102 A 
HETATM    9  C   LIG     1     -19.227 -19.158 -12.845  1.00  0.00     0.059 A 
HETATM   10  C   LIG     1     -19.217 -18.021 -12.039  1.00  0.00     0.025 A 
HETATM   11 BR   LIG     1     -19.241 -16.320 -12.881  1.00  0.00    -0.050 Br
BRANCH   7  12
HETATM   12  O   LIG     1     -19.168 -21.789 -10.295  1.00  0.00    -0.358 OA
HETATM   13  H   LIG     1     -18.379 -21.853  -9.727  1.00  0.00     0.217 HD
ENDBRANCH   7  12
BRANCH   8  14
HETATM   14  O   LIG     1     -19.221 -21.530 -13.062  1.00  0.00    -0.353 OA
HETATM   15  C   LIG     1     -20.001 -21.460 -14.253  1.00  0.00     0.210 C 
ENDBRANCH   8  14
ENDBRANCH   4   5
ENDBRANCH   1   3
BRANCH   1  16
HETATM   16  C   LIG     1     -20.779 -14.461  -8.439  1.00  0.00     0.188 C 
HETATM   17  S   LIG     1     -21.010 -13.404  -7.155  1.00  0.00    -0.040 SA
BRANCH  16  18
HETATM   18  N   LIG     1     -21.309 -14.302  -9.716  1.00  0.00    -0.364 N 
HETATM   19  H   LIG     1     -22.095 -14.898  -9.957  1.00  0.00     0.162 HD
BRANCH  18  20
HETATM   20  C   LIG     1     -20.865 -13.380 -10.725  1.00  0.00     0.150 C 
BRANCH  20  21
HETATM   21  C   LIG     1     -22.012 -12.596 -11.334  1.00  0.00     0.254 C 
BRANCH  21  22
HETATM   22  N   LIG     1     -22.356 -13.162 -12.681  1.00  0.00    -0.066 N 
HETATM   23  C   LIG     1     -21.153 -13.234 -13.591  1.00  0.00     0.261 C 
HETATM   24  C   LIG     1     -21.584 -13.865 -14.905  1.00  0.00     0.195 C 
HETATM   25  O   LIG     1     -22.634 -13.104 -15.504  1.00  0.00    -0.388 OA
HETATM   26  C   LIG     1     -23.794 -13.078 -14.671  1.00  0.00     0.195 C 
HETATM   27  C   LIG     1     -23.484 -12.405 -13.345  1.00  0.00     0.261 C 
HETATM   28  H   LIG     1     -22.687 -14.124 -12.527  1.00  0.00     0.280 HD
ENDBRANCH  21  22
ENDBRANCH  20  21
ENDBRANCH  18  20
ENDBRANCH  16  18
ENDBRANCH   1  16
TORSDOF 9
ENDMDL
MODEL 9
REMARK VINA RESULT:      -7.1      6.676      7.597
REMARK  9 active torsions:
REMARK  status: ('A' for Active; 'I' for Inactive)
REMARK    1  A    between atoms: O_4  and  C_22 
REMARK    2  A    between atoms: O_5  and  C_21 
REMARK    3  A    between atoms: N_6  and  C_12 
REMARK    4  A    between atoms: N_7  and  C_15 
REMARK    5  A    between atoms: N_7  and  C_16 
REMARK    6  A    between atoms: N_8  and  N_9 
REMARK    7  A    between atoms: N_8  and  C_16 
REMARK    8  A    between atoms: C_12  and  C_15 
REMARK    9  A    between atoms: C_17  and  C_18 
ROOT
HETATM    1  N   LIG     1     -18.911 -17.147 -13.303  1.00  0.00    -0.254 N 
HETATM    2  H   LIG     1     -18.218 -17.879 -13.423  1.00  0.00     0.191 HD
ENDROOT
BRANCH   1   3
HETATM    3  N   LIG     1     -19.855 -17.311 -12.344  1.00  0.00    -0.184 NA
HETATM    4  C   LIG     1     -19.646 -16.611 -11.277  1.00  0.00     0.151 C 
BRANCH   4   5
HETATM    5  C   LIG     1     -20.564 -16.656 -10.125  1.00  0.00     0.003 A 
HETATM    6  C   LIG     1     -21.527 -15.660 -10.041  1.00  0.00     0.053 A 
HETATM    7  C   LIG     1     -22.419 -15.658  -8.969  1.00  0.00     0.099 A 
HETATM    8  C   LIG     1     -22.340 -16.652  -7.994  1.00  0.00     0.102 A 
HETATM    9  C   LIG     1     -21.367 -17.648  -8.090  1.00  0.00     0.059 A 
HETATM   10  C   LIG     1     -20.475 -17.649  -9.162  1.00  0.00     0.025 A 
HETATM   11 BR   LIG     1     -19.171 -19.026  -9.246  1.00  0.00    -0.050 Br
BRANCH   7  12
HETATM   12  O   LIG     1     -23.365 -14.681  -8.887  1.00  0.00    -0.358 OA
HETATM   13  H   LIG     1     -23.807 -14.752  -8.022  1.00  0.00     0.217 HD
ENDBRANCH   7  12
BRANCH   8  14
HETATM   14  O   LIG     1     -23.206 -16.662  -6.942  1.00  0.00    -0.353 OA
HETATM   15  C   LIG     1     -22.949 -17.599  -5.899  1.00  0.00     0.210 C 
ENDBRANCH   8  14
ENDBRANCH   4   5
ENDBRANCH   1   3
BRANCH   1  16
HETATM   16  C   LIG     1     -18.888 -16.017 -14.097  1.00  0.00     0.188 C 
HETATM   17  S   LIG     1     -17.581 -14.967 -13.993  1.00  0.00    -0.040 SA
BRANCH  16  18
HETATM   18  N   LIG     1     -19.988 -15.851 -14.933  1.00  0.00    -0.364 N 
HETATM   19  H   LIG     1     -19.943 -16.311 -15.837  1.00  0.00     0.162 HD
BRANCH  18  20
HETATM   20  C   LIG     1     -21.182 -15.102 -14.648  1.00  0.00     0.150 C 
BRANCH  20  21
HETATM   21  C   LIG     1     -21.004 -13.617 -14.900  1.00  0.00     0.254 C 
BRANCH  21  22
HETATM   22  N   LIG     1     -21.469 -12.839 -13.703  1.00  0.00    -0.066 N 
HETATM   23  C   LIG     1     -20.571 -13.046 -12.507  1.00  0.00     0.261 C 
HETATM   24  C   LIG     1     -21.085 -12.182 -11.367  1.00  0.00     0.195 C 
HETATM   25  O   LIG     1     -22.438 -12.519 -11.056  1.00  0.00    -0.388 OA
HETATM   26  C   LIG     1     -23.301 -12.275 -12.167  1.00  0.00     0.195 C 
HETATM   27  C   LIG     1     -22.907 -13.142 -13.350  1.00  0.00     0.261 C 
HETATM   28  H   LIG     1     -21.423 -11.843 -13.957  1.00  0.00     0.280 HD
ENDBRANCH  21  22
ENDBRANCH  20  21
ENDBRANCH  18  20
ENDBRANCH  16  18
ENDBRANCH   1  16
TORSDOF 9
ENDMDL
