MODEL 1
REMARK VINA RESULT:     -11.3      0.000      0.000
REMARK  16 active torsions:
REMARK  status: ('A' for Active; 'I' for Inactive)
REMARK    1  A    between atoms: O_2  and  C_44 
REMARK    2  A    between atoms: O_6  and  C_50 
REMARK       I    between atoms: N_11  and  C_41 
REMARK    3  A    between atoms: N_11  and  C_47 
REMARK    4  A    between atoms: N_12  and  C_43 
REMARK    5  A    between atoms: N_12  and  C_48 
REMARK    6  A    between atoms: N_13  and  C_51 
REMARK    7  A    between atoms: C_14  and  C_16 
REMARK    8  A    between atoms: C_19  and  C_23 
REMARK    9  A    between atoms: C_19  and  C_27 
REMARK   10  A    between atoms: C_24  and  C_41 
REMARK   11  A    between atoms: C_25  and  C_35 
REMARK   12  A    between atoms: C_30  and  C_44 
REMARK   13  A    between atoms: C_33  and  C_39 
REMARK   14  A    between atoms: C_39  and  C_46 
REMARK   15  A    between atoms: C_47  and  C_50 
REMARK   16  A    between atoms: C_48  and  C_51 
ROOT
HETATM    1  O   LIG     1     -20.726 -15.004 -13.880  1.00  0.00     0.000 OA
HETATM    2  N   LIG     1     -22.806 -18.022 -14.950  1.00  0.00    -0.305 NA
HETATM    3  N   LIG     1     -20.982 -18.058 -13.998  1.00  0.00    -0.394 N 
HETATM    4  N   LIG     1     -21.204 -20.076 -14.103  1.00  0.00    -0.297 NA
HETATM    5  N   LIG     1     -23.006 -20.019 -15.044  1.00  0.00    -0.394 N 
HETATM    6  C   LIG     1     -23.393 -16.481 -15.265  1.00  0.00     0.114 A 
HETATM    7  C   LIG     1     -24.067 -17.134 -15.613  1.00  0.00     0.029 A 
HETATM    8  C   LIG     1     -22.629 -16.970 -14.863  1.00  0.00     0.063 A 
HETATM    9  C   LIG     1     -23.773 -15.579 -15.469  1.00  0.00     0.003 A 
HETATM   10  C   LIG     1     -23.712 -18.064 -15.423  1.00  0.00     0.069 A 
HETATM   11  C   LIG     1     -19.963 -20.939 -13.450  1.00  0.00     0.046 A 
HETATM   12  C   LIG     1     -20.637 -21.592 -13.798  1.00  0.00     0.021 A 
HETATM   13  C   LIG     1     -21.804 -16.568 -14.435  1.00  0.00    -0.041 A 
HETATM   14  C   LIG     1     -24.930 -16.910 -16.066  1.00  0.00     0.054 A 
HETATM   15  C   LIG     1     -20.318 -20.008 -13.640  1.00  0.00     0.099 A 
HETATM   16  C   LIG     1     -24.657 -15.502 -15.930  1.00  0.00     0.242 A 
HETATM   17  C   LIG     1     -21.063 -17.081 -14.045  1.00  0.00     0.072 A 
HETATM   18  C   LIG     1     -21.378 -21.080 -14.188  1.00  0.00     0.075 A 
HETATM   19  C   LIG     1     -24.209 -18.898 -15.678  1.00  0.00     0.011 A 
HETATM   20  C   LIG     1     -20.155 -18.224 -13.565  1.00  0.00     0.068 A 
HETATM   21  C   LIG     1     -21.700 -15.574 -14.386  1.00  0.00     0.101 A 
HETATM   22  C   LIG     1     -20.257 -16.651 -13.626  1.00  0.00     0.077 A 
HETATM   23  C   LIG     1     -20.661 -22.592 -13.805  1.00  0.00     0.026 C 
HETATM   24  C   LIG     1     -23.831 -19.806 -15.476  1.00  0.00     0.067 A 
HETATM   25  C   LIG     1     -19.799 -19.152 -13.373  1.00  0.00     0.014 A 
HETATM   26  C   LIG     1     -19.679 -17.410 -13.320  1.00  0.00     0.013 A 
HETATM   27  C   LIG     1     -22.204 -21.483 -14.617  1.00  0.00     0.011 A 
HETATM   28  C   LIG     1     -22.945 -20.971 -15.007  1.00  0.00     0.067 A 
HETATM   29  C   LIG     1     -24.329 -20.641 -15.731  1.00  0.00     0.013 A 
HETATM   30  C   LIG     1     -23.752 -21.399 -15.426  1.00  0.00     0.073 A 
HETATM   31  C   LIG     1     -18.794 -17.346 -12.859  1.00  0.00     0.060 C 
HETATM   32  C   LIG     1     -20.069 -15.673 -13.534  1.00  0.00     0.139 A 
HETATM   33  C   LIG     1     -25.213 -20.701 -16.193  1.00  0.00     0.060 C 
HETATM   34  H   LIG     1     -21.388 -18.479 -14.207  1.00  0.00     0.155 HD
HETATM   35  H   LIG     1     -22.589 -19.615 -14.828  1.00  0.00     0.155 HD
ENDROOT
BRANCH  16  36
HETATM   36  C   LIG     1     -25.037 -14.600 -16.134  1.00  0.00     0.186 C 
HETATM   37  O   LIG     1     -25.946 -14.353 -15.798  1.00  0.00    -0.286 OA
HETATM   38  N   LIG     1     -24.509 -13.945 -16.675  1.00  0.00    -0.074 N 
HETATM   39  H   LIG     1     -23.946 -14.097 -16.883  1.00  0.00     0.268 HD
BRANCH  38  40
HETATM   40  C   LIG     1     -24.890 -13.042 -16.878  1.00  0.00     0.632 C 
BRANCH  40  41
HETATM   41  C   LIG     1     -24.316 -12.341 -17.302  1.00  0.00     0.097 C 
HETATM   42  C   LIG     1     -23.773 -12.562 -18.111  1.00  0.00     0.100 C 
BRANCH  41  43
HETATM   43  O   LIG     1     -24.286 -11.419 -16.914  1.00  0.00    -0.401 OA
HETATM   44  H   LIG     1     -23.742 -11.170 -16.752  1.00  0.00     0.209 HD
ENDBRANCH  41  43
ENDBRANCH  40  41
ENDBRANCH  38  40
ENDBRANCH  16  36
BRANCH  21  45
HETATM   45  C   LIG     1     -22.186 -14.740 -14.644  1.00  0.00     0.079 C 
HETATM   46  O   LIG     1     -22.023 -14.322 -15.538  1.00  0.00     0.000 OA
BRANCH  45  47
HETATM   47  O   LIG     1     -22.836 -14.322 -14.009  1.00  0.00    -0.357 OA
HETATM   48  C   LIG     1     -22.764 -13.350 -13.786  1.00  0.00     0.209 C 
ENDBRANCH  45  47
ENDBRANCH  21  45
BRANCH  30  49
HETATM   49  C   LIG     1     -24.046 -22.343 -15.575  1.00  0.00     0.058 C 
HETATM   50  O   LIG     1     -24.441 -22.869 -14.821  1.00  0.00    -0.313 OA
HETATM   51  C   LIG     1     -23.947 -22.762 -16.478  1.00  0.00     0.202 C 
ENDBRANCH  30  49
BRANCH  32  52
HETATM   52  N   LIG     1     -19.226 -15.364 -13.095  1.00  0.00    -0.097 N 
HETATM   53  H   LIG     1     -18.821 -15.779 -12.874  1.00  0.00     0.265 HD
BRANCH  52  54
HETATM   54  C   LIG     1     -19.035 -14.386 -13.012  1.00  0.00     0.637 C 
BRANCH  54  55
HETATM   55  C   LIG     1     -19.294 -13.894 -12.180  1.00  0.00     0.627 C 
BRANCH  55  56
HETATM   56  N   LIG     1     -19.399 -12.900 -12.200  1.00  0.00    -0.127 N 
HETATM   57  C   LIG     1     -20.165 -12.469 -11.723  1.00  0.00     0.250 C 
HETATM   58  C   LIG     1     -18.738 -12.337 -12.696  1.00  0.00     0.250 C 
ENDBRANCH  55  56
ENDBRANCH  54  55
ENDBRANCH  52  54
ENDBRANCH  32  52
BRANCH  11  59
HETATM   59  C   LIG     1     -19.100 -21.162 -12.998  1.00  0.00     0.005 C 
HETATM   60  C   LIG     1     -19.093 -21.414 -12.030  1.00  0.00     0.010 C 
ENDBRANCH  11  59
TORSDOF 16
ENDMDL
MODEL 2
REMARK VINA RESULT:     -10.8      1.617      6.440
REMARK  16 active torsions:
REMARK  status: ('A' for Active; 'I' for Inactive)
REMARK    1  A    between atoms: O_2  and  C_44 
REMARK    2  A    between atoms: O_6  and  C_50 
REMARK       I    between atoms: N_11  and  C_41 
REMARK    3  A    between atoms: N_11  and  C_47 
REMARK    4  A    between atoms: N_12  and  C_43 
REMARK    5  A    between atoms: N_12  and  C_48 
REMARK    6  A    between atoms: N_13  and  C_51 
REMARK    7  A    between atoms: C_14  and  C_16 
REMARK    8  A    between atoms: C_19  and  C_23 
REMARK    9  A    between atoms: C_19  and  C_27 
REMARK   10  A    between atoms: C_24  and  C_41 
REMARK   11  A    between atoms: C_25  and  C_35 
REMARK   12  A    between atoms: C_30  and  C_44 
REMARK   13  A    between atoms: C_33  and  C_39 
REMARK   14  A    between atoms: C_39  and  C_46 
REMARK   15  A    between atoms: C_47  and  C_50 
REMARK   16  A    between atoms: C_48  and  C_51 
ROOT
HETATM    1  O   LIG     1     -20.783 -20.664 -14.043  1.00  0.00     0.000 OA
HETATM    2  N   LIG     1     -22.969 -17.690 -15.024  1.00  0.00    -0.305 NA
HETATM    3  N   LIG     1     -21.096 -17.615 -14.174  1.00  0.00    -0.394 N 
HETATM    4  N   LIG     1     -21.356 -15.603 -14.285  1.00  0.00    -0.297 NA
HETATM    5  N   LIG     1     -23.206 -15.697 -15.125  1.00  0.00    -0.394 N 
HETATM    6  C   LIG     1     -23.546 -19.243 -15.292  1.00  0.00     0.114 A 
HETATM    7  C   LIG     1     -24.249 -18.605 -15.609  1.00  0.00     0.029 A 
HETATM    8  C   LIG     1     -22.769 -18.738 -14.937  1.00  0.00     0.063 A 
HETATM    9  C   LIG     1     -23.922 -20.153 -15.466  1.00  0.00     0.003 A 
HETATM   10  C   LIG     1     -23.899 -17.667 -15.447  1.00  0.00     0.069 A 
HETATM   11  C   LIG     1     -20.096 -14.713 -13.709  1.00  0.00     0.046 A 
HETATM   12  C   LIG     1     -20.798 -14.075 -14.026  1.00  0.00     0.021 A 
HETATM   13  C   LIG     1     -21.916 -19.123 -14.551  1.00  0.00    -0.041 A 
HETATM   14  C   LIG     1     -25.132 -18.846 -16.010  1.00  0.00     0.054 A 
HETATM   15  C   LIG     1     -20.445 -15.651 -13.871  1.00  0.00     0.099 A 
HETATM   16  C   LIG     1     -24.828 -20.249 -15.878  1.00  0.00     0.242 A 
HETATM   17  C   LIG     1     -21.163 -18.594 -14.208  1.00  0.00     0.072 A 
HETATM   18  C   LIG     1     -21.551 -14.602 -14.370  1.00  0.00     0.075 A 
HETATM   19  C   LIG     1     -24.423 -16.844 -15.682  1.00  0.00     0.011 A 
HETATM   20  C   LIG     1     -20.248 -17.432 -13.788  1.00  0.00     0.068 A 
HETATM   21  C   LIG     1     -21.793 -20.114 -14.499  1.00  0.00     0.101 A 
HETATM   22  C   LIG     1     -20.328 -19.007 -13.830  1.00  0.00     0.077 A 
HETATM   23  C   LIG     1     -20.839 -13.075 -14.041  1.00  0.00     0.026 C 
HETATM   24  C   LIG     1     -24.050 -15.928 -15.509  1.00  0.00     0.067 A 
HETATM   25  C   LIG     1     -19.898 -16.496 -13.626  1.00  0.00     0.014 A 
HETATM   26  C   LIG     1     -19.747 -18.235 -13.563  1.00  0.00     0.013 A 
HETATM   27  C   LIG     1     -22.406 -14.217 -14.756  1.00  0.00     0.011 A 
HETATM   28  C   LIG     1     -23.159 -14.744 -15.100  1.00  0.00     0.067 A 
HETATM   29  C   LIG     1     -24.574 -15.104 -15.744  1.00  0.00     0.013 A 
HETATM   30  C   LIG     1     -23.994 -14.333 -15.478  1.00  0.00     0.073 A 
HETATM   31  C   LIG     1     -18.837 -18.281 -13.150  1.00  0.00     0.060 C 
HETATM   32  C   LIG     1     -20.120 -19.981 -13.739  1.00  0.00     0.139 A 
HETATM   33  C   LIG     1     -25.484 -15.062 -16.157  1.00  0.00     0.060 C 
HETATM   34  H   LIG     1     -21.519 -17.203 -14.364  1.00  0.00     0.155 HD
HETATM   35  H   LIG     1     -22.771 -16.093 -14.929  1.00  0.00     0.155 HD
ENDROOT
BRANCH  16  36
HETATM   36  C   LIG     1     -25.205 -21.159 -16.052  1.00  0.00     0.186 C 
HETATM   37  O   LIG     1     -25.720 -21.632 -15.338  1.00  0.00    -0.286 OA
HETATM   38  N   LIG     1     -25.065 -21.596 -16.941  1.00  0.00    -0.074 N 
HETATM   39  H   LIG     1     -24.746 -21.303 -17.384  1.00  0.00     0.268 HD
BRANCH  38  40
HETATM   40  C   LIG     1     -25.442 -22.506 -17.115  1.00  0.00     0.632 C 
BRANCH  40  41
HETATM   41  C   LIG     1     -24.966 -23.135 -17.731  1.00  0.00     0.097 C 
HETATM   42  C   LIG     1     -24.961 -24.116 -17.537  1.00  0.00     0.100 C 
BRANCH  41  43
HETATM   43  O   LIG     1     -24.497 -22.781 -18.540  1.00  0.00    -0.401 OA
HETATM   44  H   LIG     1     -24.042 -22.364 -18.475  1.00  0.00     0.209 HD
ENDBRANCH  41  43
ENDBRANCH  40  41
ENDBRANCH  38  40
ENDBRANCH  16  36
BRANCH  21  45
HETATM   45  C   LIG     1     -22.279 -20.959 -14.723  1.00  0.00     0.079 C 
HETATM   46  O   LIG     1     -22.319 -21.277 -15.670  1.00  0.00     0.000 OA
BRANCH  45  47
HETATM   47  O   LIG     1     -22.725 -21.486 -13.999  1.00  0.00    -0.357 OA
HETATM   48  C   LIG     1     -22.719 -22.485 -14.032  1.00  0.00     0.209 C 
ENDBRANCH  45  47
ENDBRANCH  21  45
BRANCH  30  49
HETATM   49  C   LIG     1     -24.312 -13.395 -15.619  1.00  0.00     0.058 C 
HETATM   50  O   LIG     1     -24.718 -12.886 -14.860  1.00  0.00    -0.313 OA
HETATM   51  C   LIG     1     -24.224 -12.968 -16.518  1.00  0.00     0.202 C 
ENDBRANCH  30  49
BRANCH  32  52
HETATM   52  N   LIG     1     -19.249 -20.272 -13.345  1.00  0.00    -0.097 N 
HETATM   53  H   LIG     1     -18.726 -19.974 -13.493  1.00  0.00     0.265 HD
BRANCH  52  54
HETATM   54  C   LIG     1     -19.220 -21.044 -12.709  1.00  0.00     0.637 C 
BRANCH  54  55
HETATM   55  C   LIG     1     -19.244 -20.880 -11.722  1.00  0.00     0.627 C 
BRANCH  55  56
HETATM   56  N   LIG     1     -19.065 -21.632 -11.088  1.00  0.00    -0.127 N 
HETATM   57  C   LIG     1     -19.014 -22.571 -11.427  1.00  0.00     0.250 C 
HETATM   58  C   LIG     1     -18.937 -21.445 -10.113  1.00  0.00     0.250 C 
ENDBRANCH  55  56
ENDBRANCH  54  55
ENDBRANCH  52  54
ENDBRANCH  32  52
BRANCH  11  59
HETATM   59  C   LIG     1     -19.212 -14.472 -13.307  1.00  0.00     0.005 C 
HETATM   60  C   LIG     1     -18.430 -14.279 -13.900  1.00  0.00     0.010 C 
ENDBRANCH  11  59
TORSDOF 16
ENDMDL
MODEL 3
REMARK VINA RESULT:     -10.8      1.208      4.988
REMARK  16 active torsions:
REMARK  status: ('A' for Active; 'I' for Inactive)
REMARK    1  A    between atoms: O_2  and  C_44 
REMARK    2  A    between atoms: O_6  and  C_50 
REMARK       I    between atoms: N_11  and  C_41 
REMARK    3  A    between atoms: N_11  and  C_47 
REMARK    4  A    between atoms: N_12  and  C_43 
REMARK    5  A    between atoms: N_12  and  C_48 
REMARK    6  A    between atoms: N_13  and  C_51 
REMARK    7  A    between atoms: C_14  and  C_16 
REMARK    8  A    between atoms: C_19  and  C_23 
REMARK    9  A    between atoms: C_19  and  C_27 
REMARK   10  A    between atoms: C_24  and  C_41 
REMARK   11  A    between atoms: C_25  and  C_35 
REMARK   12  A    between atoms: C_30  and  C_44 
REMARK   13  A    between atoms: C_33  and  C_39 
REMARK   14  A    between atoms: C_39  and  C_46 
REMARK   15  A    between atoms: C_47  and  C_50 
REMARK   16  A    between atoms: C_48  and  C_51 
ROOT
HETATM    1  O   LIG     1     -23.428 -14.944 -15.148  1.00  0.00     0.000 OA
HETATM    2  N   LIG     1     -21.213 -17.867 -14.084  1.00  0.00    -0.305 NA
HETATM    3  N   LIG     1     -23.069 -17.985 -14.965  1.00  0.00    -0.394 N 
HETATM    4  N   LIG     1     -22.779 -19.991 -14.819  1.00  0.00    -0.297 NA
HETATM    5  N   LIG     1     -20.946 -19.854 -13.949  1.00  0.00    -0.394 N 
HETATM    6  C   LIG     1     -20.665 -16.301 -13.831  1.00  0.00     0.114 A 
HETATM    7  C   LIG     1     -19.958 -16.923 -13.492  1.00  0.00     0.029 A 
HETATM    8  C   LIG     1     -21.428 -16.824 -14.191  1.00  0.00     0.063 A 
HETATM    9  C   LIG     1     -20.306 -15.383 -13.664  1.00  0.00     0.003 A 
HETATM   10  C   LIG     1     -20.290 -17.869 -13.646  1.00  0.00     0.069 A 
HETATM   11  C   LIG     1     -24.015 -20.909 -15.402  1.00  0.00     0.046 A 
HETATM   12  C   LIG     1     -23.308 -21.531 -15.064  1.00  0.00     0.021 A 
HETATM   13  C   LIG     1     -22.280 -16.458 -14.597  1.00  0.00    -0.041 A 
HETATM   14  C   LIG     1     -19.086 -16.661 -13.079  1.00  0.00     0.054 A 
HETATM   15  C   LIG     1     -23.684 -19.963 -15.249  1.00  0.00     0.099 A 
HETATM   16  C   LIG     1     -19.409 -15.266 -13.239  1.00  0.00     0.242 A 
HETATM   17  C   LIG     1     -23.019 -17.004 -14.945  1.00  0.00     0.072 A 
HETATM   18  C   LIG     1     -22.570 -20.987 -14.716  1.00  0.00     0.075 A 
HETATM   19  C   LIG     1     -19.757 -18.679 -13.390  1.00  0.00     0.011 A 
HETATM   20  C   LIG     1     -23.907 -18.188 -15.362  1.00  0.00     0.068 A 
HETATM   21  C   LIG     1     -22.418 -15.470 -14.666  1.00  0.00     0.101 A 
HETATM   22  C   LIG     1     -23.854 -16.611 -15.343  1.00  0.00     0.077 A 
HETATM   23  C   LIG     1     -23.252 -22.530 -15.033  1.00  0.00     0.026 C 
HETATM   24  C   LIG     1     -20.112 -19.604 -13.554  1.00  0.00     0.067 A 
HETATM   25  C   LIG     1     -24.240 -19.131 -15.516  1.00  0.00     0.014 A 
HETATM   26  C   LIG     1     -24.418 -17.396 -15.608  1.00  0.00     0.013 A 
HETATM   27  C   LIG     1     -21.716 -21.352 -14.309  1.00  0.00     0.011 A 
HETATM   28  C   LIG     1     -20.977 -20.808 -13.960  1.00  0.00     0.067 A 
HETATM   29  C   LIG     1     -19.579 -20.416 -13.298  1.00  0.00     0.013 A 
HETATM   30  C   LIG     1     -20.142 -21.200 -13.562  1.00  0.00     0.073 A 
HETATM   31  C   LIG     1     -25.321 -17.371 -16.037  1.00  0.00     0.060 C 
HETATM   32  C   LIG     1     -24.075 -15.642 -15.453  1.00  0.00     0.139 A 
HETATM   33  C   LIG     1     -18.676 -20.437 -12.869  1.00  0.00     0.060 C 
HETATM   34  H   LIG     1     -22.643 -18.387 -14.761  1.00  0.00     0.155 HD
HETATM   35  H   LIG     1     -21.384 -19.468 -14.159  1.00  0.00     0.155 HD
ENDROOT
BRANCH  16  36
HETATM   36  C   LIG     1     -19.050 -14.348 -13.072  1.00  0.00     0.186 C 
HETATM   37  O   LIG     1     -18.165 -14.080 -13.451  1.00  0.00    -0.286 OA
HETATM   38  N   LIG     1     -19.578 -13.696 -12.526  1.00  0.00    -0.074 N 
HETATM   39  H   LIG     1     -20.127 -13.861 -12.291  1.00  0.00     0.268 HD
BRANCH  38  40
HETATM   40  C   LIG     1     -19.218 -12.777 -12.360  1.00  0.00     0.632 C 
BRANCH  40  41
HETATM   41  C   LIG     1     -19.799 -12.083 -11.932  1.00  0.00     0.097 C 
HETATM   42  C   LIG     1     -20.603 -12.360 -11.406  1.00  0.00     0.100 C 
BRANCH  41  43
HETATM   43  O   LIG     1     -19.573 -11.114 -12.031  1.00  0.00    -0.401 OA
HETATM   44  H   LIG     1     -19.000 -10.915 -11.903  1.00  0.00     0.209 HD
ENDBRANCH  41  43
ENDBRANCH  40  41
ENDBRANCH  38  40
ENDBRANCH  16  36
BRANCH  21  45
HETATM   45  C   LIG     1     -21.949 -14.615 -14.447  1.00  0.00     0.079 C 
HETATM   46  O   LIG     1     -22.129 -14.154 -13.579  1.00  0.00     0.000 OA
BRANCH  45  47
HETATM   47  O   LIG     1     -21.300 -14.219 -15.098  1.00  0.00    -0.357 OA
HETATM   48  C   LIG     1     -21.447 -13.297 -15.453  1.00  0.00     0.209 C 
ENDBRANCH  45  47
ENDBRANCH  21  45
BRANCH  30  49
HETATM   49  C   LIG     1     -19.812 -22.130 -13.402  1.00  0.00     0.058 C 
HETATM   50  O   LIG     1     -19.511 -22.693 -14.171  1.00  0.00    -0.313 OA
HETATM   51  C   LIG     1     -19.783 -22.496 -12.472  1.00  0.00     0.202 C 
ENDBRANCH  30  49
BRANCH  32  52
HETATM   52  N   LIG     1     -24.944 -15.371 -15.866  1.00  0.00    -0.097 N 
HETATM   53  H   LIG     1     -25.376 -15.799 -15.988  1.00  0.00     0.265 HD
BRANCH  52  54
HETATM   54  C   LIG     1     -25.117 -14.410 -16.083  1.00  0.00     0.637 C 
BRANCH  54  55
HETATM   55  C   LIG     1     -24.852 -14.044 -16.976  1.00  0.00     0.627 C 
BRANCH  55  56
HETATM   56  N   LIG     1     -24.635 -13.073 -17.073  1.00  0.00    -0.127 N 
HETATM   57  C   LIG     1     -24.961 -12.417 -16.391  1.00  0.00     0.250 C 
HETATM   58  C   LIG     1     -24.093 -12.755 -17.850  1.00  0.00     0.250 C 
ENDBRANCH  55  56
ENDBRANCH  54  55
ENDBRANCH  52  54
ENDBRANCH  32  52
BRANCH  11  59
HETATM   59  C   LIG     1     -24.887 -21.171 -15.815  1.00  0.00     0.005 C 
HETATM   60  C   LIG     1     -24.907 -21.568 -16.733  1.00  0.00     0.010 C 
ENDBRANCH  11  59
TORSDOF 16
ENDMDL
MODEL 4
REMARK VINA RESULT:     -10.0      2.993      4.405
REMARK  16 active torsions:
REMARK  status: ('A' for Active; 'I' for Inactive)
REMARK    1  A    between atoms: O_2  and  C_44 
REMARK    2  A    between atoms: O_6  and  C_50 
REMARK       I    between atoms: N_11  and  C_41 
REMARK    3  A    between atoms: N_11  and  C_47 
REMARK    4  A    between atoms: N_12  and  C_43 
REMARK    5  A    between atoms: N_12  and  C_48 
REMARK    6  A    between atoms: N_13  and  C_51 
REMARK    7  A    between atoms: C_14  and  C_16 
REMARK    8  A    between atoms: C_19  and  C_23 
REMARK    9  A    between atoms: C_19  and  C_27 
REMARK   10  A    between atoms: C_24  and  C_41 
REMARK   11  A    between atoms: C_25  and  C_35 
REMARK   12  A    between atoms: C_30  and  C_44 
REMARK   13  A    between atoms: C_33  and  C_39 
REMARK   14  A    between atoms: C_39  and  C_46 
REMARK   15  A    between atoms: C_47  and  C_50 
REMARK   16  A    between atoms: C_48  and  C_51 
ROOT
HETATM    1  O   LIG     1     -20.842 -14.215  -9.951  1.00  0.00     0.000 OA
HETATM    2  N   LIG     1     -20.344 -17.281 -12.172  1.00  0.00    -0.305 NA
HETATM    3  N   LIG     1     -20.049 -17.173 -10.138  1.00  0.00    -0.394 N 
HETATM    4  N   LIG     1     -19.534 -19.130 -10.321  1.00  0.00    -0.297 NA
HETATM    5  N   LIG     1     -19.831 -19.218 -12.331  1.00  0.00    -0.394 N 
HETATM    6  C   LIG     1     -20.856 -15.846 -12.875  1.00  0.00     0.114 A 
HETATM    7  C   LIG     1     -20.784 -16.527 -13.606  1.00  0.00     0.029 A 
HETATM    8  C   LIG     1     -20.603 -16.256 -12.008  1.00  0.00     0.063 A 
HETATM    9  C   LIG     1     -21.161 -15.008 -13.329  1.00  0.00     0.003 A 
HETATM   10  C   LIG     1     -20.474 -17.394 -13.180  1.00  0.00     0.069 A 
HETATM   11  C   LIG     1     -19.104 -19.862  -8.910  1.00  0.00     0.046 A 
HETATM   12  C   LIG     1     -19.032 -20.543  -9.640  1.00  0.00     0.021 A 
HETATM   13  C   LIG     1     -20.584 -15.804 -11.102  1.00  0.00    -0.041 A 
HETATM   14  C   LIG     1     -20.980 -16.380 -14.575  1.00  0.00     0.054 A 
HETATM   15  C   LIG     1     -19.413 -18.995  -9.335  1.00  0.00     0.099 A 
HETATM   16  C   LIG     1     -21.321 -15.004 -14.316  1.00  0.00     0.242 A 
HETATM   17  C   LIG     1     -20.328 -16.239 -10.260  1.00  0.00     0.072 A 
HETATM   18  C   LIG     1     -19.287 -20.110 -10.482  1.00  0.00     0.075 A 
HETATM   19  C   LIG     1     -20.325 -18.234 -13.707  1.00  0.00     0.011 A 
HETATM   20  C   LIG     1     -19.874 -17.267  -9.211  1.00  0.00     0.068 A 
HETATM   21  C   LIG     1     -20.838 -14.840 -11.018  1.00  0.00     0.101 A 
HETATM   22  C   LIG     1     -20.319 -15.762  -9.375  1.00  0.00     0.077 A 
HETATM   23  C   LIG     1     -18.763 -21.507  -9.634  1.00  0.00     0.026 C 
HETATM   24  C   LIG     1     -20.018 -19.078 -13.257  1.00  0.00     0.067 A 
HETATM   25  C   LIG     1     -19.566 -18.131  -8.784  1.00  0.00     0.014 A 
HETATM   26  C   LIG     1     -20.022 -16.447  -8.707  1.00  0.00     0.013 A 
HETATM   27  C   LIG     1     -19.307 -20.562 -11.390  1.00  0.00     0.011 A 
HETATM   28  C   LIG     1     -19.562 -20.128 -12.232  1.00  0.00     0.067 A 
HETATM   29  C   LIG     1     -19.869 -19.919 -13.785  1.00  0.00     0.013 A 
HETATM   30  C   LIG     1     -19.572 -20.604 -13.117  1.00  0.00     0.073 A 
HETATM   31  C   LIG     1     -19.901 -16.315  -7.722  1.00  0.00     0.060 C 
HETATM   32  C   LIG     1     -20.556 -14.807  -9.198  1.00  0.00     0.139 A 
HETATM   33  C   LIG     1     -19.991 -20.047 -14.769  1.00  0.00     0.060 C 
HETATM   34  H   LIG     1     -19.998 -17.609 -10.577  1.00  0.00     0.155 HD
HETATM   35  H   LIG     1     -19.876 -18.796 -11.879  1.00  0.00     0.155 HD
ENDROOT
BRANCH  16  36
HETATM   36  C   LIG     1     -21.626 -14.166 -14.769  1.00  0.00     0.186 C 
HETATM   37  O   LIG     1     -20.976 -13.612 -15.287  1.00  0.00    -0.286 OA
HETATM   38  N   LIG     1     -22.584 -13.883 -14.704  1.00  0.00    -0.074 N 
HETATM   39  H   LIG     1     -22.987 -14.226 -14.382  1.00  0.00     0.268 HD
BRANCH  38  40
HETATM   40  C   LIG     1     -22.889 -13.045 -15.158  1.00  0.00     0.632 C 
BRANCH  40  41
HETATM   41  C   LIG     1     -23.630 -12.503 -14.760  1.00  0.00     0.097 C 
HETATM   42  C   LIG     1     -24.555 -12.574 -15.131  1.00  0.00     0.100 C 
BRANCH  41  43
HETATM   43  O   LIG     1     -23.443 -11.890 -13.992  1.00  0.00    -0.401 OA
HETATM   44  H   LIG     1     -23.541 -11.281 -14.052  1.00  0.00     0.209 HD
ENDBRANCH  41  43
ENDBRANCH  40  41
ENDBRANCH  38  40
ENDBRANCH  16  36
BRANCH  21  45
HETATM   45  C   LIG     1     -21.142 -14.076 -11.587  1.00  0.00     0.079 C 
HETATM   46  O   LIG     1     -22.116 -13.943 -11.767  1.00  0.00     0.000 OA
BRANCH  45  47
HETATM   47  O   LIG     1     -20.471 -13.445 -11.977  1.00  0.00    -0.357 OA
HETATM   48  C   LIG     1     -20.583 -12.459 -11.856  1.00  0.00     0.209 C 
ENDBRANCH  45  47
ENDBRANCH  21  45
BRANCH  30  49
HETATM   49  C   LIG     1     -19.360 -21.534 -13.415  1.00  0.00     0.058 C 
HETATM   50  O   LIG     1     -19.170 -22.245 -12.738  1.00  0.00    -0.313 OA
HETATM   51  C   LIG     1     -19.339 -21.754 -14.390  1.00  0.00     0.202 C 
ENDBRANCH  30  49
BRANCH  32  52
HETATM   52  N   LIG     1     -20.508 -14.444  -8.268  1.00  0.00    -0.097 N 
HETATM   53  H   LIG     1     -20.342 -14.813  -7.799  1.00  0.00     0.265 HD
BRANCH  52  54
HETATM   54  C   LIG     1     -20.730 -13.484  -8.094  1.00  0.00     0.637 C 
BRANCH  54  55
HETATM   55  C   LIG     1     -21.144 -13.216  -7.223  1.00  0.00     0.627 C 
BRANCH  55  56
HETATM   56  N   LIG     1     -20.825 -12.395  -6.751  1.00  0.00    -0.127 N 
HETATM   57  C   LIG     1     -19.992 -11.933  -7.057  1.00  0.00     0.250 C 
HETATM   58  C   LIG     1     -21.338 -12.034  -5.972  1.00  0.00     0.250 C 
ENDBRANCH  55  56
ENDBRANCH  54  55
ENDBRANCH  52  54
ENDBRANCH  32  52
BRANCH  11  59
HETATM   59  C   LIG     1     -18.908 -20.009  -7.940  1.00  0.00     0.005 C 
HETATM   60  C   LIG     1     -19.584 -20.459  -7.357  1.00  0.00     0.010 C 
ENDBRANCH  11  59
TORSDOF 16
ENDMDL
MODEL 5
REMARK VINA RESULT:     -10.0      3.458      6.419
REMARK  16 active torsions:
REMARK  status: ('A' for Active; 'I' for Inactive)
REMARK    1  A    between atoms: O_2  and  C_44 
REMARK    2  A    between atoms: O_6  and  C_50 
REMARK       I    between atoms: N_11  and  C_41 
REMARK    3  A    between atoms: N_11  and  C_47 
REMARK    4  A    between atoms: N_12  and  C_43 
REMARK    5  A    between atoms: N_12  and  C_48 
REMARK    6  A    between atoms: N_13  and  C_51 
REMARK    7  A    between atoms: C_14  and  C_16 
REMARK    8  A    between atoms: C_19  and  C_23 
REMARK    9  A    between atoms: C_19  and  C_27 
REMARK   10  A    between atoms: C_24  and  C_41 
REMARK   11  A    between atoms: C_25  and  C_35 
REMARK   12  A    between atoms: C_30  and  C_44 
REMARK   13  A    between atoms: C_33  and  C_39 
REMARK   14  A    between atoms: C_39  and  C_46 
REMARK   15  A    between atoms: C_47  and  C_50 
REMARK   16  A    between atoms: C_48  and  C_51 
ROOT
HETATM    1  O   LIG     1     -21.152 -14.088 -12.761  1.00  0.00     0.000 OA
HETATM    2  N   LIG     1     -20.237 -16.814 -10.249  1.00  0.00    -0.305 NA
HETATM    3  N   LIG     1     -20.251 -16.984 -12.300  1.00  0.00    -0.394 N 
HETATM    4  N   LIG     1     -19.656 -18.892 -11.936  1.00  0.00    -0.297 NA
HETATM    5  N   LIG     1     -19.647 -18.705  -9.911  1.00  0.00    -0.394 N 
HETATM    6  C   LIG     1     -20.681 -15.300  -9.676  1.00  0.00     0.114 A 
HETATM    7  C   LIG     1     -20.480 -15.874  -8.880  1.00  0.00     0.029 A 
HETATM    8  C   LIG     1     -20.548 -15.824 -10.508  1.00  0.00     0.063 A 
HETATM    9  C   LIG     1     -20.941 -14.412  -9.298  1.00  0.00     0.003 A 
HETATM   10  C   LIG     1     -20.212 -16.788  -9.227  1.00  0.00     0.069 A 
HETATM   11  C   LIG     1     -19.419 -19.808 -13.284  1.00  0.00     0.046 A 
HETATM   12  C   LIG     1     -19.218 -20.381 -12.489  1.00  0.00     0.021 A 
HETATM   13  C   LIG     1     -20.678 -15.501 -11.459  1.00  0.00    -0.041 A 
HETATM   14  C   LIG     1     -20.534 -15.597  -7.921  1.00  0.00     0.054 A 
HETATM   15  C   LIG     1     -19.688 -18.893 -12.938  1.00  0.00     0.099 A 
HETATM   16  C   LIG     1     -20.952 -14.273  -8.308  1.00  0.00     0.242 A 
HETATM   17  C   LIG     1     -20.537 -16.045 -12.264  1.00  0.00     0.072 A 
HETATM   18  C   LIG     1     -19.358 -19.838 -11.683  1.00  0.00     0.075 A 
HETATM   19  C   LIG     1     -19.960 -17.546  -8.620  1.00  0.00     0.011 A 
HETATM   20  C   LIG     1     -20.214 -17.203 -13.222  1.00  0.00     0.068 A 
HETATM   21  C   LIG     1     -20.971 -14.560 -11.632  1.00  0.00     0.101 A 
HETATM   22  C   LIG     1     -20.675 -15.694 -13.196  1.00  0.00     0.077 A 
HETATM   23  C   LIG     1     -18.924 -21.333 -12.405  1.00  0.00     0.026 C 
HETATM   24  C   LIG     1     -19.698 -18.441  -8.994  1.00  0.00     0.067 A 
HETATM   25  C   LIG     1     -19.946 -18.115 -13.571  1.00  0.00     0.014 A 
HETATM   26  C   LIG     1     -20.460 -16.462 -13.804  1.00  0.00     0.013 A 
HETATM   27  C   LIG     1     -19.228 -20.161 -10.731  1.00  0.00     0.011 A 
HETATM   28  C   LIG     1     -19.369 -19.618  -9.926  1.00  0.00     0.067 A 
HETATM   29  C   LIG     1     -19.446 -19.201  -8.387  1.00  0.00     0.013 A 
HETATM   30  C   LIG     1     -19.232 -19.967  -8.994  1.00  0.00     0.073 A 
HETATM   31  C   LIG     1     -20.491 -16.465 -14.804  1.00  0.00     0.060 C 
HETATM   32  C   LIG     1     -20.965 -14.775 -13.462  1.00  0.00     0.139 A 
HETATM   33  C   LIG     1     -19.416 -19.193  -7.388  1.00  0.00     0.060 C 
HETATM   34  H   LIG     1     -20.122 -17.355 -11.820  1.00  0.00     0.155 HD
HETATM   35  H   LIG     1     -19.772 -18.350 -10.404  1.00  0.00     0.155 HD
ENDROOT
BRANCH  16  36
HETATM   36  C   LIG     1     -21.211 -13.384  -7.931  1.00  0.00     0.186 C 
HETATM   37  O   LIG     1     -22.084 -12.969  -8.184  1.00  0.00    -0.286 OA
HETATM   38  N   LIG     1     -20.597 -12.911  -7.299  1.00  0.00    -0.074 N 
HETATM   39  H   LIG     1     -20.056 -13.168  -7.141  1.00  0.00     0.268 HD
BRANCH  38  40
HETATM   40  C   LIG     1     -20.857 -12.021  -6.921  1.00  0.00     0.632 C 
BRANCH  40  41
HETATM   41  C   LIG     1     -20.305 -11.604  -6.199  1.00  0.00     0.097 C 
HETATM   42  C   LIG     1     -20.745 -11.067  -5.480  1.00  0.00     0.100 C 
BRANCH  41  43
HETATM   43  O   LIG     1     -19.312 -11.724  -6.198  1.00  0.00    -0.401 OA
HETATM   44  H   LIG     1     -19.066 -12.260  -6.390  1.00  0.00     0.209 HD
ENDBRANCH  41  43
ENDBRANCH  40  41
ENDBRANCH  38  40
ENDBRANCH  16  36
BRANCH  21  45
HETATM   45  C   LIG     1     -21.210 -13.728 -11.132  1.00  0.00     0.079 C 
HETATM   46  O   LIG     1     -22.144 -13.591 -10.805  1.00  0.00     0.000 OA
BRANCH  45  47
HETATM   47  O   LIG     1     -20.512 -13.032 -10.959  1.00  0.00    -0.357 OA
HETATM   48  C   LIG     1     -20.668 -12.087 -11.245  1.00  0.00     0.209 C 
ENDBRANCH  45  47
ENDBRANCH  21  45
BRANCH  30  49
HETATM   49  C   LIG     1     -18.950 -20.846  -8.609  1.00  0.00     0.058 C 
HETATM   50  O   LIG     1     -18.777 -21.624  -9.213  1.00  0.00    -0.313 OA
HETATM   51  C   LIG     1     -18.842 -20.947  -7.620  1.00  0.00     0.202 C 
ENDBRANCH  30  49
BRANCH  32  52
HETATM   52  N   LIG     1     -21.067 -14.543 -14.429  1.00  0.00    -0.097 N 
HETATM   53  H   LIG     1     -20.769 -14.873 -14.861  1.00  0.00     0.265 HD
BRANCH  52  54
HETATM   54  C   LIG     1     -21.650 -13.776 -14.700  1.00  0.00     0.637 C 
BRANCH  54  55
HETATM   55  C   LIG     1     -21.733 -13.529 -15.666  1.00  0.00     0.627 C 
BRANCH  55  56
HETATM   56  N   LIG     1     -22.627 -13.290 -16.045  1.00  0.00    -0.127 N 
HETATM   57  C   LIG     1     -23.291 -12.794 -15.484  1.00  0.00     0.250 C 
HETATM   58  C   LIG     1     -22.859 -13.546 -16.983  1.00  0.00     0.250 C 
ENDBRANCH  55  56
ENDBRANCH  54  55
ENDBRANCH  52  54
ENDBRANCH  32  52
BRANCH  11  59
HETATM   59  C   LIG     1     -19.366 -20.084 -14.244  1.00  0.00     0.005 C 
HETATM   60  C   LIG     1     -19.938 -20.831 -14.581  1.00  0.00     0.010 C 
ENDBRANCH  11  59
TORSDOF 16
ENDMDL
MODEL 6
REMARK VINA RESULT:      -9.7      1.984      8.248
REMARK  16 active torsions:
REMARK  status: ('A' for Active; 'I' for Inactive)
REMARK    1  A    between atoms: O_2  and  C_44 
REMARK    2  A    between atoms: O_6  and  C_50 
REMARK       I    between atoms: N_11  and  C_41 
REMARK    3  A    between atoms: N_11  and  C_47 
REMARK    4  A    between atoms: N_12  and  C_43 
REMARK    5  A    between atoms: N_12  and  C_48 
REMARK    6  A    between atoms: N_13  and  C_51 
REMARK    7  A    between atoms: C_14  and  C_16 
REMARK    8  A    between atoms: C_19  and  C_23 
REMARK    9  A    between atoms: C_19  and  C_27 
REMARK   10  A    between atoms: C_24  and  C_41 
REMARK   11  A    between atoms: C_25  and  C_35 
REMARK   12  A    between atoms: C_30  and  C_44 
REMARK   13  A    between atoms: C_33  and  C_39 
REMARK   14  A    between atoms: C_39  and  C_46 
REMARK   15  A    between atoms: C_47  and  C_50 
REMARK   16  A    between atoms: C_48  and  C_51 
ROOT
HETATM    1  O   LIG     1     -23.395 -19.954 -15.530  1.00  0.00     0.000 OA
HETATM    2  N   LIG     1     -21.376 -17.112 -13.972  1.00  0.00    -0.305 NA
HETATM    3  N   LIG     1     -23.119 -16.936 -15.053  1.00  0.00    -0.394 N 
HETATM    4  N   LIG     1     -22.886 -14.947 -14.706  1.00  0.00    -0.297 NA
HETATM    5  N   LIG     1     -21.165 -15.141 -13.641  1.00  0.00    -0.394 N 
HETATM    6  C   LIG     1     -20.832 -18.689 -13.787  1.00  0.00     0.114 A 
HETATM    7  C   LIG     1     -20.181 -18.091 -13.317  1.00  0.00     0.029 A 
HETATM    8  C   LIG     1     -21.557 -18.144 -14.190  1.00  0.00     0.063 A 
HETATM    9  C   LIG     1     -20.478 -19.615 -13.657  1.00  0.00     0.003 A 
HETATM   10  C   LIG     1     -20.511 -17.139 -13.429  1.00  0.00     0.069 A 
HETATM   11  C   LIG     1     -24.063 -13.995 -15.353  1.00  0.00     0.046 A 
HETATM   12  C   LIG     1     -23.412 -13.397 -14.882  1.00  0.00     0.021 A 
HETATM   13  C   LIG     1     -22.349 -18.481 -14.723  1.00  0.00    -0.041 A 
HETATM   14  C   LIG     1     -19.359 -18.379 -12.827  1.00  0.00     0.054 A 
HETATM   15  C   LIG     1     -23.734 -14.947 -15.241  1.00  0.00     0.099 A 
HETATM   16  C   LIG     1     -19.634 -19.759 -13.140  1.00  0.00     0.242 A 
HETATM   17  C   LIG     1     -23.052 -17.915 -15.109  1.00  0.00     0.072 A 
HETATM   18  C   LIG     1     -22.710 -13.962 -14.496  1.00  0.00     0.075 A 
HETATM   19  C   LIG     1     -20.027 -16.348 -13.045  1.00  0.00     0.011 A 
HETATM   20  C   LIG     1     -23.908 -16.708 -15.528  1.00  0.00     0.068 A 
HETATM   21  C   LIG     1     -22.459 -19.461 -14.890  1.00  0.00     0.101 A 
HETATM   22  C   LIG     1     -23.827 -18.280 -15.634  1.00  0.00     0.077 A 
HETATM   23  C   LIG     1     -23.379 -12.404 -14.762  1.00  0.00     0.026 C 
HETATM   24  C   LIG     1     -20.378 -15.416 -13.173  1.00  0.00     0.067 A 
HETATM   25  C   LIG     1     -24.239 -15.758 -15.641  1.00  0.00     0.014 A 
HETATM   26  C   LIG     1     -24.371 -17.481 -15.897  1.00  0.00     0.013 A 
HETATM   27  C   LIG     1     -21.916 -13.625 -13.962  1.00  0.00     0.011 A 
HETATM   28  C   LIG     1     -21.213 -14.190 -13.576  1.00  0.00     0.067 A 
HETATM   29  C   LIG     1     -19.895 -14.624 -12.788  1.00  0.00     0.013 A 
HETATM   30  C   LIG     1     -20.438 -13.826 -13.051  1.00  0.00     0.073 A 
HETATM   31  C   LIG     1     -25.218 -17.478 -16.430  1.00  0.00     0.060 C 
HETATM   32  C   LIG     1     -24.016 -19.238 -15.850  1.00  0.00     0.139 A 
HETATM   33  C   LIG     1     -19.049 -14.632 -12.255  1.00  0.00     0.060 C 
HETATM   34  H   LIG     1     -22.727 -16.549 -14.767  1.00  0.00     0.155 HD
HETATM   35  H   LIG     1     -21.568 -15.512 -13.932  1.00  0.00     0.155 HD
ENDROOT
BRANCH  16  36
HETATM   36  C   LIG     1     -19.280 -20.685 -13.009  1.00  0.00     0.186 C 
HETATM   37  O   LIG     1     -18.933 -21.203 -13.791  1.00  0.00    -0.286 OA
HETATM   38  N   LIG     1     -19.272 -21.093 -12.096  1.00  0.00    -0.074 N 
HETATM   39  H   LIG     1     -19.486 -20.772 -11.611  1.00  0.00     0.268 HD
BRANCH  38  40
HETATM   40  C   LIG     1     -18.917 -22.020 -11.966  1.00  0.00     0.632 C 
BRANCH  40  41
HETATM   41  C   LIG     1     -18.695 -22.345 -11.046  1.00  0.00     0.097 C 
HETATM   42  C   LIG     1     -19.065 -21.874 -10.246  1.00  0.00     0.100 C 
BRANCH  41  43
HETATM   43  O   LIG     1     -18.102 -23.142 -10.928  1.00  0.00    -0.401 OA
HETATM   44  H   LIG     1     -18.144 -23.619 -11.323  1.00  0.00     0.209 HD
ENDBRANCH  41  43
ENDBRANCH  40  41
ENDBRANCH  38  40
ENDBRANCH  16  36
BRANCH  21  45
HETATM   45  C   LIG     1     -22.003 -20.328 -14.690  1.00  0.00     0.079 C 
HETATM   46  O   LIG     1     -21.167 -20.578 -15.178  1.00  0.00     0.000 OA
BRANCH  45  47
HETATM   47  O   LIG     1     -22.383 -20.946 -14.001  1.00  0.00    -0.357 OA
HETATM   48  C   LIG     1     -22.463 -21.923 -14.195  1.00  0.00     0.209 C 
ENDBRANCH  45  47
ENDBRANCH  21  45
BRANCH  30  49
HETATM   49  C   LIG     1     -20.147 -12.910 -12.775  1.00  0.00     0.058 C 
HETATM   50  O   LIG     1     -19.383 -12.466 -13.244  1.00  0.00    -0.313 OA
HETATM   51  C   LIG     1     -20.619 -12.438 -12.030  1.00  0.00     0.202 C 
ENDBRANCH  30  49
BRANCH  32  52
HETATM   52  N   LIG     1     -24.825 -19.481 -16.384  1.00  0.00    -0.097 N 
HETATM   53  H   LIG     1     -25.082 -19.065 -16.765  1.00  0.00     0.265 HD
BRANCH  52  54
HETATM   54  C   LIG     1     -25.221 -20.396 -16.304  1.00  0.00     0.637 C 
BRANCH  54  55
HETATM   55  C   LIG     1     -25.259 -20.996 -17.104  1.00  0.00     0.627 C 
BRANCH  55  56
HETATM   56  N   LIG     1     -25.303 -21.987 -16.982  1.00  0.00    -0.127 N 
HETATM   57  C   LIG     1     -24.894 -22.594 -17.665  1.00  0.00     0.250 C 
HETATM   58  C   LIG     1     -25.755 -22.374 -16.179  1.00  0.00     0.250 C 
ENDBRANCH  55  56
ENDBRANCH  54  55
ENDBRANCH  52  54
ENDBRANCH  32  52
BRANCH  11  59
HETATM   59  C   LIG     1     -24.886 -13.706 -15.842  1.00  0.00     0.005 C 
HETATM   60  C   LIG     1     -24.812 -13.329 -16.765  1.00  0.00     0.010 C 
ENDBRANCH  11  59
TORSDOF 16
ENDMDL
MODEL 7
REMARK VINA RESULT:      -9.7      2.858      8.066
REMARK  16 active torsions:
REMARK  status: ('A' for Active; 'I' for Inactive)
REMARK    1  A    between atoms: O_2  and  C_44 
REMARK    2  A    between atoms: O_6  and  C_50 
REMARK       I    between atoms: N_11  and  C_41 
REMARK    3  A    between atoms: N_11  and  C_47 
REMARK    4  A    between atoms: N_12  and  C_43 
REMARK    5  A    between atoms: N_12  and  C_48 
REMARK    6  A    between atoms: N_13  and  C_51 
REMARK    7  A    between atoms: C_14  and  C_16 
REMARK    8  A    between atoms: C_19  and  C_23 
REMARK    9  A    between atoms: C_19  and  C_27 
REMARK   10  A    between atoms: C_24  and  C_41 
REMARK   11  A    between atoms: C_25  and  C_35 
REMARK   12  A    between atoms: C_30  and  C_44 
REMARK   13  A    between atoms: C_33  and  C_39 
REMARK   14  A    between atoms: C_39  and  C_46 
REMARK   15  A    between atoms: C_47  and  C_50 
REMARK   16  A    between atoms: C_48  and  C_51 
ROOT
HETATM    1  O   LIG     1     -22.256 -15.402 -15.189  1.00  0.00     0.000 OA
HETATM    2  N   LIG     1     -21.296 -15.225 -11.497  1.00  0.00    -0.305 NA
HETATM    3  N   LIG     1     -22.504 -13.909 -12.521  1.00  0.00    -0.394 N 
HETATM    4  N   LIG     1     -22.632 -12.961 -10.728  1.00  0.00    -0.297 NA
HETATM    5  N   LIG     1     -21.436 -14.272  -9.734  1.00  0.00    -0.394 N 
HETATM    6  C   LIG     1     -20.700 -16.486 -12.430  1.00  0.00     0.114 A 
HETATM    7  C   LIG     1     -20.344 -16.607 -11.502  1.00  0.00     0.029 A 
HETATM    8  C   LIG     1     -21.270 -15.675 -12.468  1.00  0.00     0.063 A 
HETATM    9  C   LIG     1     -20.326 -17.251 -12.955  1.00  0.00     0.003 A 
HETATM   10  C   LIG     1     -20.705 -15.845 -10.939  1.00  0.00     0.069 A 
HETATM   11  C   LIG     1     -23.568 -11.606 -10.733  1.00  0.00     0.046 A 
HETATM   12  C   LIG     1     -23.212 -11.726  -9.805  1.00  0.00     0.021 A 
HETATM   13  C   LIG     1     -21.759 -15.310 -13.276  1.00  0.00    -0.041 A 
HETATM   14  C   LIG     1     -19.744 -17.343 -11.188  1.00  0.00     0.054 A 
HETATM   15  C   LIG     1     -23.207 -12.368 -11.296  1.00  0.00     0.099 A 
HETATM   16  C   LIG     1     -19.733 -17.921 -12.508  1.00  0.00     0.242 A 
HETATM   17  C   LIG     1     -22.317 -14.503 -13.281  1.00  0.00     0.072 A 
HETATM   18  C   LIG     1     -22.654 -12.533  -9.799  1.00  0.00     0.075 A 
HETATM   19  C   LIG     1     -20.491 -15.741  -9.965  1.00  0.00     0.011 A 
HETATM   20  C   LIG     1     -23.072 -13.230 -12.862  1.00  0.00     0.068 A 
HETATM   21  C   LIG     1     -21.692 -15.781 -14.156  1.00  0.00     0.101 A 
HETATM   22  C   LIG     1     -22.790 -14.165 -14.101  1.00  0.00     0.077 A 
HETATM   23  C   LIG     1     -23.333 -11.195  -8.966  1.00  0.00     0.026 C 
HETATM   24  C   LIG     1     -20.863 -14.974  -9.433  1.00  0.00     0.067 A 
HETATM   25  C   LIG     1     -23.433 -12.468 -12.302  1.00  0.00     0.014 A 
HETATM   26  C   LIG     1     -23.275 -13.339 -13.808  1.00  0.00     0.013 A 
HETATM   27  C   LIG     1     -22.165 -12.899  -8.990  1.00  0.00     0.011 A 
HETATM   28  C   LIG     1     -21.606 -13.706  -8.984  1.00  0.00     0.067 A 
HETATM   29  C   LIG     1     -20.649 -14.870  -8.458  1.00  0.00     0.013 A 
HETATM   30  C   LIG     1     -21.133 -14.044  -8.165  1.00  0.00     0.073 A 
HETATM   31  C   LIG     1     -23.849 -12.746 -14.373  1.00  0.00     0.060 C 
HETATM   32  C   LIG     1     -22.780 -14.569 -15.016  1.00  0.00     0.139 A 
HETATM   33  C   LIG     1     -20.074 -15.465  -7.897  1.00  0.00     0.060 C 
HETATM   34  H   LIG     1     -22.294 -13.967 -11.940  1.00  0.00     0.155 HD
HETATM   35  H   LIG     1     -21.656 -14.197 -10.309  1.00  0.00     0.155 HD
ENDROOT
BRANCH  16  36
HETATM   36  C   LIG     1     -19.359 -18.686 -13.032  1.00  0.00     0.186 C 
HETATM   37  O   LIG     1     -18.526 -18.563 -13.571  1.00  0.00    -0.286 OA
HETATM   38  N   LIG     1     -19.819 -19.574 -13.018  1.00  0.00    -0.074 N 
HETATM   39  H   LIG     1     -20.335 -19.651 -12.683  1.00  0.00     0.268 HD
BRANCH  38  40
HETATM   40  C   LIG     1     -19.444 -20.340 -13.543  1.00  0.00     0.632 C 
BRANCH  40  41
HETATM   41  C   LIG     1     -19.896 -21.232 -13.517  1.00  0.00     0.097 C 
HETATM   42  C   LIG     1     -20.554 -21.479 -14.228  1.00  0.00     0.100 C 
BRANCH  41  43
HETATM   43  O   LIG     1     -19.689 -21.875 -12.780  1.00  0.00    -0.401 OA
HETATM   44  H   LIG     1     -20.118 -22.001 -12.350  1.00  0.00     0.209 HD
ENDBRANCH  41  43
ENDBRANCH  40  41
ENDBRANCH  38  40
ENDBRANCH  16  36
BRANCH  21  45
HETATM   45  C   LIG     1     -21.258 -16.584 -14.564  1.00  0.00     0.079 C 
HETATM   46  O   LIG     1     -20.398 -16.488 -15.065  1.00  0.00     0.000 OA
BRANCH  45  47
HETATM   47  O   LIG     1     -21.684 -17.485 -14.470  1.00  0.00    -0.357 OA
HETATM   48  C   LIG     1     -22.257 -17.844 -15.205  1.00  0.00     0.209 C 
ENDBRANCH  45  47
ENDBRANCH  21  45
BRANCH  30  49
HETATM   49  C   LIG     1     -21.067 -13.736  -7.216  1.00  0.00     0.058 C 
HETATM   50  O   LIG     1     -21.566 -14.220  -6.497  1.00  0.00    -0.313 OA
HETATM   51  C   LIG     1     -20.503 -12.943  -6.985  1.00  0.00     0.202 C 
ENDBRANCH  30  49
BRANCH  32  52
HETATM   52  N   LIG     1     -23.294 -14.139 -15.758  1.00  0.00    -0.097 N 
HETATM   53  H   LIG     1     -23.637 -13.634 -15.646  1.00  0.00     0.265 HD
BRANCH  52  54
HETATM   54  C   LIG     1     -23.256 -14.523 -16.681  1.00  0.00     0.637 C 
BRANCH  54  55
HETATM   55  C   LIG     1     -24.015 -14.374 -17.316  1.00  0.00     0.627 C 
BRANCH  55  56
HETATM   56  N   LIG     1     -23.888 -13.790 -18.117  1.00  0.00    -0.127 N 
HETATM   57  C   LIG     1     -23.662 -14.196 -19.002  1.00  0.00     0.250 C 
HETATM   58  C   LIG     1     -23.987 -12.798 -18.034  1.00  0.00     0.250 C 
ENDBRANCH  55  56
ENDBRANCH  54  55
ENDBRANCH  52  54
ENDBRANCH  32  52
BRANCH  11  59
HETATM   59  C   LIG     1     -24.168 -10.870 -11.047  1.00  0.00     0.005 C 
HETATM   60  C   LIG     1     -25.160 -10.966 -10.968  1.00  0.00     0.010 C 
ENDBRANCH  11  59
TORSDOF 16
ENDMDL
MODEL 8
REMARK VINA RESULT:      -9.5      3.850      6.209
REMARK  16 active torsions:
REMARK  status: ('A' for Active; 'I' for Inactive)
REMARK    1  A    between atoms: O_2  and  C_44 
REMARK    2  A    between atoms: O_6  and  C_50 
REMARK       I    between atoms: N_11  and  C_41 
REMARK    3  A    between atoms: N_11  and  C_47 
REMARK    4  A    between atoms: N_12  and  C_43 
REMARK    5  A    between atoms: N_12  and  C_48 
REMARK    6  A    between atoms: N_13  and  C_51 
REMARK    7  A    between atoms: C_14  and  C_16 
REMARK    8  A    between atoms: C_19  and  C_23 
REMARK    9  A    between atoms: C_19  and  C_27 
REMARK   10  A    between atoms: C_24  and  C_41 
REMARK   11  A    between atoms: C_25  and  C_35 
REMARK   12  A    between atoms: C_30  and  C_44 
REMARK   13  A    between atoms: C_33  and  C_39 
REMARK   14  A    between atoms: C_39  and  C_46 
REMARK   15  A    between atoms: C_47  and  C_50 
REMARK   16  A    between atoms: C_48  and  C_51 
ROOT
HETATM    1  O   LIG     1     -23.868 -11.813 -12.475  1.00  0.00     0.000 OA
HETATM    2  N   LIG     1     -21.433 -14.747 -12.258  1.00  0.00    -0.305 NA
HETATM    3  N   LIG     1     -22.256 -13.710 -10.682  1.00  0.00    -0.394 N 
HETATM    4  N   LIG     1     -21.167 -14.993  -9.543  1.00  0.00    -0.297 NA
HETATM    5  N   LIG     1     -20.364 -16.006 -11.113  1.00  0.00    -0.394 N 
HETATM    6  C   LIG     1     -21.916 -14.205 -13.771  1.00  0.00     0.114 A 
HETATM    7  C   LIG     1     -21.286 -14.970 -13.915  1.00  0.00     0.029 A 
HETATM    8  C   LIG     1     -22.029 -14.042 -12.799  1.00  0.00     0.063 A 
HETATM    9  C   LIG     1     -22.181 -13.910 -14.689  1.00  0.00     0.003 A 
HETATM   10  C   LIG     1     -20.994 -15.296 -13.000  1.00  0.00     0.069 A 
HETATM   11  C   LIG     1     -21.317 -14.768  -7.918  1.00  0.00     0.046 A 
HETATM   12  C   LIG     1     -20.687 -15.532  -8.062  1.00  0.00     0.021 A 
HETATM   13  C   LIG     1     -22.606 -13.333 -12.362  1.00  0.00    -0.041 A 
HETATM   14  C   LIG     1     -20.997 -15.342 -14.796  1.00  0.00     0.054 A 
HETATM   15  C   LIG     1     -21.609 -14.441  -8.833  1.00  0.00     0.099 A 
HETATM   16  C   LIG     1     -21.812 -14.378 -15.491  1.00  0.00     0.242 A 
HETATM   17  C   LIG     1     -22.697 -13.197 -11.394  1.00  0.00     0.072 A 
HETATM   18  C   LIG     1     -20.596 -15.669  -9.029  1.00  0.00     0.075 A 
HETATM   19  C   LIG     1     -20.358 -16.062 -12.875  1.00  0.00     0.011 A 
HETATM   20  C   LIG     1     -22.556 -13.325  -9.869  1.00  0.00     0.068 A 
HETATM   21  C   LIG     1     -23.140 -12.705 -12.928  1.00  0.00     0.101 A 
HETATM   22  C   LIG     1     -23.279 -12.484 -10.991  1.00  0.00     0.077 A 
HETATM   23  C   LIG     1     -20.187 -16.118  -7.424  1.00  0.00     0.026 C 
HETATM   24  C   LIG     1     -20.088 -16.363 -11.955  1.00  0.00     0.067 A 
HETATM   25  C   LIG     1     -22.267 -13.649  -8.955  1.00  0.00     0.014 A 
HETATM   26  C   LIG     1     -23.174 -12.583  -9.999  1.00  0.00     0.013 A 
HETATM   27  C   LIG     1     -20.018 -16.378  -9.467  1.00  0.00     0.011 A 
HETATM   28  C   LIG     1     -19.927 -16.515 -10.434  1.00  0.00     0.067 A 
HETATM   29  C   LIG     1     -19.450 -17.129 -11.829  1.00  0.00     0.013 A 
HETATM   30  C   LIG     1     -19.346 -17.228 -10.838  1.00  0.00     0.073 A 
HETATM   31  C   LIG     1     -23.613 -12.033  -9.289  1.00  0.00     0.060 C 
HETATM   32  C   LIG     1     -23.843 -11.816 -11.475  1.00  0.00     0.139 A 
HETATM   33  C   LIG     1     -19.013 -17.676 -12.542  1.00  0.00     0.060 C 
HETATM   34  H   LIG     1     -21.863 -14.186 -10.750  1.00  0.00     0.155 HD
HETATM   35  H   LIG     1     -20.754 -15.532 -11.024  1.00  0.00     0.155 HD
ENDROOT
BRANCH  16  36
HETATM   36  C   LIG     1     -22.077 -14.082 -16.409  1.00  0.00     0.186 C 
HETATM   37  O   LIG     1     -21.576 -13.345 -16.862  1.00  0.00    -0.286 OA
HETATM   38  N   LIG     1     -22.845 -14.525 -16.874  1.00  0.00    -0.074 N 
HETATM   39  H   LIG     1     -23.156 -14.982 -16.593  1.00  0.00     0.268 HD
BRANCH  38  40
HETATM   40  C   LIG     1     -23.110 -14.228 -17.793  1.00  0.00     0.632 C 
BRANCH  40  41
HETATM   41  C   LIG     1     -24.033 -13.879 -17.958  1.00  0.00     0.097 C 
HETATM   42  C   LIG     1     -24.828 -14.418 -17.679  1.00  0.00     0.100 C 
BRANCH  41  43
HETATM   43  O   LIG     1     -24.159 -12.992 -18.402  1.00  0.00    -0.401 OA
HETATM   44  H   LIG     1     -23.858 -12.494 -18.187  1.00  0.00     0.209 HD
ENDBRANCH  41  43
ENDBRANCH  40  41
ENDBRANCH  38  40
ENDBRANCH  16  36
BRANCH  21  45
HETATM   45  C   LIG     1     -23.323 -12.509 -13.891  1.00  0.00     0.079 C 
HETATM   46  O   LIG     1     -22.734 -11.878 -14.395  1.00  0.00     0.000 OA
BRANCH  45  47
HETATM   47  O   LIG     1     -24.098 -12.945 -14.351  1.00  0.00    -0.357 OA
HETATM   48  C   LIG     1     -24.780 -12.385 -14.821  1.00  0.00     0.209 C 
ENDBRANCH  45  47
ENDBRANCH  21  45
BRANCH  30  49
HETATM   49  C   LIG     1     -18.748 -17.939 -10.468  1.00  0.00     0.058 C 
HETATM   50  O   LIG     1     -17.806 -17.719 -10.215  1.00  0.00    -0.313 OA
HETATM   51  C   LIG     1     -19.093 -18.870 -10.350  1.00  0.00     0.202 C 
ENDBRANCH  30  49
BRANCH  32  52
HETATM   52  N   LIG     1     -24.383 -11.150 -10.961  1.00  0.00    -0.097 N 
HETATM   53  H   LIG     1     -24.193 -10.962 -10.402  1.00  0.00     0.265 HD
BRANCH  52  54
HETATM   54  C   LIG     1     -25.230 -10.786 -11.349  1.00  0.00     0.637 C 
BRANCH  54  55
HETATM   55  C   LIG     1     -25.714 -10.043 -10.886  1.00  0.00     0.627 C 
BRANCH  55  56
HETATM   56  N   LIG     1     -26.567  -9.688 -11.267  1.00  0.00    -0.127 N 
HETATM   57  C   LIG     1     -26.909  -8.793 -10.980  1.00  0.00     0.250 C 
HETATM   58  C   LIG     1     -27.079 -10.227 -11.937  1.00  0.00     0.250 C 
ENDBRANCH  55  56
ENDBRANCH  54  55
ENDBRANCH  52  54
ENDBRANCH  32  52
BRANCH  11  59
HETATM   59  C   LIG     1     -21.606 -14.395  -7.037  1.00  0.00     0.005 C 
HETATM   60  C   LIG     1     -21.144 -13.593  -6.658  1.00  0.00     0.010 C 
ENDBRANCH  11  59
TORSDOF 16
ENDMDL
MODEL 9
REMARK VINA RESULT:      -9.3      3.941      7.993
REMARK  16 active torsions:
REMARK  status: ('A' for Active; 'I' for Inactive)
REMARK    1  A    between atoms: O_2  and  C_44 
REMARK    2  A    between atoms: O_6  and  C_50 
REMARK       I    between atoms: N_11  and  C_41 
REMARK    3  A    between atoms: N_11  and  C_47 
REMARK    4  A    between atoms: N_12  and  C_43 
REMARK    5  A    between atoms: N_12  and  C_48 
REMARK    6  A    between atoms: N_13  and  C_51 
REMARK    7  A    between atoms: C_14  and  C_16 
REMARK    8  A    between atoms: C_19  and  C_23 
REMARK    9  A    between atoms: C_19  and  C_27 
REMARK   10  A    between atoms: C_24  and  C_41 
REMARK   11  A    between atoms: C_25  and  C_35 
REMARK   12  A    between atoms: C_30  and  C_44 
REMARK   13  A    between atoms: C_33  and  C_39 
REMARK   14  A    between atoms: C_39  and  C_46 
REMARK   15  A    between atoms: C_47  and  C_50 
REMARK   16  A    between atoms: C_48  and  C_51 
ROOT
HETATM    1  O   LIG     1     -20.847 -14.472  -7.689  1.00  0.00     0.000 OA
HETATM    2  N   LIG     1     -21.327 -15.465 -11.345  1.00  0.00    -0.305 NA
HETATM    3  N   LIG     1     -22.073 -13.786 -10.416  1.00  0.00    -0.394 N 
HETATM    4  N   LIG     1     -22.862 -13.381 -12.245  1.00  0.00    -0.297 NA
HETATM    5  N   LIG     1     -22.116 -15.046 -13.145  1.00  0.00    -0.394 N 
HETATM    6  C   LIG     1     -20.423 -16.465 -10.345  1.00  0.00     0.114 A 
HETATM    7  C   LIG     1     -20.437 -16.884 -11.254  1.00  0.00     0.029 A 
HETATM    8  C   LIG     1     -20.941 -15.619 -10.359  1.00  0.00     0.063 A 
HETATM    9  C   LIG     1     -19.878 -17.084  -9.780  1.00  0.00     0.003 A 
HETATM   10  C   LIG     1     -20.984 -16.280 -11.857  1.00  0.00     0.069 A 
HETATM   11  C   LIG     1     -23.733 -11.987 -12.324  1.00  0.00     0.046 A 
HETATM   12  C   LIG     1     -23.748 -12.406 -13.233  1.00  0.00     0.021 A 
HETATM   13  C   LIG     1     -21.096 -14.986  -9.583  1.00  0.00    -0.041 A 
HETATM   14  C   LIG     1     -19.995 -17.741 -11.519  1.00  0.00     0.054 A 
HETATM   15  C   LIG     1     -23.187 -12.591 -11.721  1.00  0.00     0.099 A 
HETATM   16  C   LIG     1     -19.491 -17.915 -10.179  1.00  0.00     0.242 A 
HETATM   17  C   LIG     1     -21.615 -14.154  -9.629  1.00  0.00     0.072 A 
HETATM   18  C   LIG     1     -23.229 -13.238 -13.189  1.00  0.00     0.075 A 
HETATM   19  C   LIG     1     -21.147 -16.483 -12.826  1.00  0.00     0.011 A 
HETATM   20  C   LIG     1     -22.476 -12.979 -10.121  1.00  0.00     0.068 A 
HETATM   21  C   LIG     1     -20.705 -15.190  -8.685  1.00  0.00     0.101 A 
HETATM   22  C   LIG     1     -21.751 -13.546  -8.840  1.00  0.00     0.077 A 
HETATM   23  C   LIG     1     -24.173 -12.127 -14.094  1.00  0.00     0.026 C 
HETATM   24  C   LIG     1     -21.694 -15.864 -13.398  1.00  0.00     0.067 A 
HETATM   25  C   LIG     1     -23.022 -12.374 -10.721  1.00  0.00     0.014 A 
HETATM   26  C   LIG     1     -22.312 -12.789  -9.180  1.00  0.00     0.013 A 
HETATM   27  C   LIG     1     -23.074 -13.872 -13.965  1.00  0.00     0.011 A 
HETATM   28  C   LIG     1     -22.555 -14.703 -13.920  1.00  0.00     0.067 A 
HETATM   29  C   LIG     1     -21.858 -16.068 -14.368  1.00  0.00     0.013 A 
HETATM   30  C   LIG     1     -22.419 -15.312 -14.708  1.00  0.00     0.073 A 
HETATM   31  C   LIG     1     -22.638 -12.000  -8.660  1.00  0.00     0.060 C 
HETATM   32  C   LIG     1     -21.401 -13.669  -7.911  1.00  0.00     0.139 A 
HETATM   33  C   LIG     1     -21.530 -16.858 -14.885  1.00  0.00     0.060 C 
HETATM   34  H   LIG     1     -22.094 -14.030 -10.986  1.00  0.00     0.155 HD
HETATM   35  H   LIG     1     -22.107 -14.786 -12.582  1.00  0.00     0.155 HD
ENDROOT
BRANCH  16  36
HETATM   36  C   LIG     1     -18.947 -18.535  -9.615  1.00  0.00     0.186 C 
HETATM   37  O   LIG     1     -17.964 -18.384  -9.511  1.00  0.00    -0.286 OA
HETATM   38  N   LIG     1     -19.386 -19.306  -9.152  1.00  0.00    -0.074 N 
HETATM   39  H   LIG     1     -19.995 -19.400  -9.216  1.00  0.00     0.268 HD
BRANCH  38  40
HETATM   40  C   LIG     1     -18.840 -19.926  -8.587  1.00  0.00     0.632 C 
BRANCH  40  41
HETATM   41  C   LIG     1     -19.211 -20.272  -7.724  1.00  0.00     0.097 C 
HETATM   42  C   LIG     1     -20.172 -20.540  -7.665  1.00  0.00     0.100 C 
BRANCH  41  43
HETATM   43  O   LIG     1     -18.619 -20.349  -6.922  1.00  0.00    -0.401 OA
HETATM   44  H   LIG     1     -18.380 -20.900  -6.766  1.00  0.00     0.209 HD
ENDBRANCH  41  43
ENDBRANCH  40  41
ENDBRANCH  38  40
ENDBRANCH  16  36
BRANCH  21  45
HETATM   45  C   LIG     1     -20.148 -15.886  -8.233  1.00  0.00     0.079 C 
HETATM   46  O   LIG     1     -19.160 -15.758  -8.148  1.00  0.00     0.000 OA
BRANCH  45  47
HETATM   47  O   LIG     1     -20.579 -16.711  -7.865  1.00  0.00    -0.357 OA
HETATM   48  C   LIG     1     -20.973 -16.701  -6.946  1.00  0.00     0.209 C 
ENDBRANCH  45  47
ENDBRANCH  21  45
BRANCH  30  49
HETATM   49  C   LIG     1     -22.711 -15.297 -15.664  1.00  0.00     0.058 C 
HETATM   50  O   LIG     1     -22.183 -14.785 -16.341  1.00  0.00    -0.313 OA
HETATM   51  C   LIG     1     -23.532 -15.795 -15.943  1.00  0.00     0.202 C 
ENDBRANCH  30  49
BRANCH  32  52
HETATM   52  N   LIG     1     -21.604 -12.991  -7.206  1.00  0.00    -0.097 N 
HETATM   53  H   LIG     1     -22.181 -12.775  -7.140  1.00  0.00     0.265 HD
BRANCH  52  54
HETATM   54  C   LIG     1     -20.875 -12.661  -6.605  1.00  0.00     0.637 C 
BRANCH  54  55
HETATM   55  C   LIG     1     -21.093 -12.044  -5.848  1.00  0.00     0.627 C 
BRANCH  55  56
HETATM   56  N   LIG     1     -20.513 -11.249  -5.670  1.00  0.00    -0.127 N 
HETATM   57  C   LIG     1     -20.863 -10.487  -5.123  1.00  0.00     0.250 C 
HETATM   58  C   LIG     1     -19.584 -11.213  -6.038  1.00  0.00     0.250 C 
ENDBRANCH  55  56
ENDBRANCH  54  55
ENDBRANCH  52  54
ENDBRANCH  32  52
BRANCH  11  59
HETATM   59  C   LIG     1     -24.176 -11.130 -12.059  1.00  0.00     0.005 C 
HETATM   60  C   LIG     1     -25.051 -11.148 -11.576  1.00  0.00     0.010 C 
ENDBRANCH  11  59
TORSDOF 16
ENDMDL
