MODEL 1
REMARK VINA RESULT:      -6.4      0.000      0.000
REMARK  4 active torsions:
REMARK  status: ('A' for Active; 'I' for Inactive)
REMARK    1  A    between atoms: C_4  and  C_6 
REMARK    2  A    between atoms: C_5  and  C_14 
REMARK    3  A    between atoms: C_7  and  N_16 
REMARK    4  A    between atoms: C_10  and  N_19 
ROOT
HETATM    1  N   LIG     1     -20.228 -12.917 -12.126  1.00  0.00    -0.066 NA
HETATM    2  N   LIG     1     -19.335 -15.112 -12.564  1.00  0.00    -0.045 NA
HETATM    3  C   LIG     1     -20.869 -14.778 -10.738  1.00  0.00     0.048 A 
HETATM    4  C   LIG     1     -20.918 -13.444 -11.093  1.00  0.00     0.080 A 
HETATM    5  C   LIG     1     -20.053 -15.572 -11.518  1.00  0.00     0.153 A 
HETATM    6  C   LIG     1     -19.467 -13.794 -12.809  1.00  0.00     0.722 A 
ENDROOT
BRANCH   3   7
HETATM    7  C   LIG     1     -21.628 -15.297  -9.621  1.00  0.00     0.004 A 
HETATM    8  C   LIG     1     -21.045 -15.376  -8.357  1.00  0.00     0.001 A 
HETATM    9  C   LIG     1     -21.776 -15.878  -7.281  1.00  0.00     0.011 A 
HETATM   10  C   LIG     1     -23.092 -16.301  -7.469  1.00  0.00     0.058 A 
HETATM   11 CL   LIG     1     -23.994 -16.922  -6.141  1.00  0.00    -0.082 Cl
HETATM   12  C   LIG     1     -23.676 -16.222  -8.732  1.00  0.00     0.011 A 
HETATM   13  C   LIG     1     -22.944 -15.721  -9.809  1.00  0.00     0.001 A 
ENDBRANCH   3   7
BRANCH   5  14
HETATM   14  N   LIG     1     -19.952 -16.953 -11.214  1.00  0.00    -0.383 N 
HETATM   15  H   LIG     1     -20.689 -17.340 -10.637  1.00  0.00     0.157 HD
HETATM   16  H   LIG     1     -19.516 -17.571 -11.885  1.00  0.00     0.157 HD
ENDBRANCH   5  14
BRANCH   4  17
HETATM   17  C   LIG     1     -21.763 -12.475 -10.331  1.00  0.00     0.047 C 
HETATM   18  C   LIG     1     -23.023 -12.084 -11.099  1.00  0.00     0.007 C 
ENDBRANCH   4  17
BRANCH   6  19
HETATM   19  N   LIG     1     -18.732 -13.278 -13.896  1.00  0.00    -0.231 N 
HETATM   20  H   LIG     1     -18.801 -13.725 -14.801  1.00  0.00     0.174 HD
HETATM   21  H   LIG     1     -18.143 -12.468 -13.759  1.00  0.00     0.174 HD
ENDBRANCH   6  19
TORSDOF 4
ENDMDL
