MODEL 1
REMARK VINA RESULT:      -9.5      0.000      0.000
REMARK  3 active torsions:
REMARK  status: ('A' for Active; 'I' for Inactive)
REMARK    1  A    between atoms: N_6  and  N_7 
REMARK       I    between atoms: N_6  and  C_10 
REMARK       I    between atoms: N_7  and  C_13 
REMARK    2  A    between atoms: C_8  and  C_10 
REMARK    3  A    between atoms: C_9  and  C_13 
ROOT
HETATM    1  O   LIG     1     -22.609 -22.389 -10.579  1.00  0.00    -0.266 OA
HETATM    2  N   LIG     1     -22.284 -21.001 -12.405  1.00  0.00    -0.263 N 
HETATM    3  C   LIG     1     -22.066 -21.420 -11.106  1.00  0.00     0.271 C 
HETATM    4  H   LIG     1     -21.834 -20.193 -12.824  1.00  0.00     0.190 HD
ENDROOT
BRANCH   2   5
HETATM    5  N   LIG     1     -23.168 -21.706 -13.187  1.00  0.00    -0.263 N 
HETATM    6  C   LIG     1     -22.900 -21.894 -14.544  1.00  0.00     0.270 C 
HETATM    7  O   LIG     1     -21.877 -21.446 -15.092  1.00  0.00    -0.266 OA
HETATM    8  H   LIG     1     -24.026 -22.000 -12.732  1.00  0.00     0.190 HD
BRANCH   6   9
HETATM    9  C   LIG     1     -23.889 -22.634 -15.312  1.00  0.00     0.033 A 
HETATM   10  C   LIG     1     -24.027 -24.010 -15.129  1.00  0.00     0.020 A 
HETATM   11  C   LIG     1     -24.975 -24.719 -15.865  1.00  0.00     0.043 A 
HETATM   12  C   LIG     1     -25.786 -24.053 -16.785  1.00  0.00     0.116 A 
HETATM   13  F   LIG     1     -26.696 -24.735 -17.492  1.00  0.00    -0.206 F 
HETATM   14  C   LIG     1     -25.648 -22.678 -16.969  1.00  0.00     0.043 A 
HETATM   15  C   LIG     1     -24.699 -21.969 -16.232  1.00  0.00     0.020 A 
ENDBRANCH   6   9
ENDBRANCH   2   5
BRANCH   3  16
HETATM   16  C   LIG     1     -21.112 -20.600 -10.316  1.00  0.00     0.053 A 
HETATM   17  C   LIG     1     -19.761 -20.878 -10.313  1.00  0.00     0.026 A 
HETATM   18 BR   LIG     1     -19.008 -22.312 -11.303  1.00  0.00    -0.050 Br
HETATM   19  C   LIG     1     -18.907 -20.079  -9.553  1.00  0.00     0.023 A 
HETATM   20  C   LIG     1     -19.423 -19.016  -8.812  1.00  0.00     0.043 A 
HETATM   21  C   LIG     1     -20.792 -18.753  -8.830  1.00  0.00     0.117 A 
HETATM   22  F   LIG     1     -21.287 -17.732  -8.117  1.00  0.00    -0.206 F 
HETATM   23  C   LIG     1     -21.646 -19.552  -9.589  1.00  0.00     0.060 A 
ENDBRANCH   3  16
TORSDOF 3
ENDMDL
MODEL 2
REMARK VINA RESULT:      -9.2      1.843      1.964
REMARK  3 active torsions:
REMARK  status: ('A' for Active; 'I' for Inactive)
REMARK    1  A    between atoms: N_6  and  N_7 
REMARK       I    between atoms: N_6  and  C_10 
REMARK       I    between atoms: N_7  and  C_13 
REMARK    2  A    between atoms: C_8  and  C_10 
REMARK    3  A    between atoms: C_9  and  C_13 
ROOT
HETATM    1  O   LIG     1     -19.869 -21.930 -12.883  1.00  0.00    -0.266 OA
HETATM    2  N   LIG     1     -21.920 -21.093 -12.206  1.00  0.00    -0.263 N 
HETATM    3  C   LIG     1     -20.541 -21.172 -12.187  1.00  0.00     0.271 C 
HETATM    4  H   LIG     1     -22.462 -20.467 -11.619  1.00  0.00     0.190 HD
ENDROOT
BRANCH   2   5
HETATM    5  N   LIG     1     -22.617 -21.915 -13.062  1.00  0.00    -0.263 N 
HETATM    6  C   LIG     1     -23.113 -21.408 -14.264  1.00  0.00     0.270 C 
HETATM    7  O   LIG     1     -22.951 -20.223 -14.607  1.00  0.00    -0.266 OA
HETATM    8  H   LIG     1     -22.793 -22.856 -12.727  1.00  0.00     0.190 HD
BRANCH   6   9
HETATM    9  C   LIG     1     -23.854 -22.330 -15.109  1.00  0.00     0.033 A 
HETATM   10  C   LIG     1     -23.877 -23.691 -14.804  1.00  0.00     0.020 A 
HETATM   11  C   LIG     1     -24.588 -24.575 -15.614  1.00  0.00     0.043 A 
HETATM   12  C   LIG     1     -25.278 -24.099 -16.729  1.00  0.00     0.116 A 
HETATM   13  F   LIG     1     -25.961 -24.949 -17.507  1.00  0.00    -0.206 F 
HETATM   14  C   LIG     1     -25.256 -22.739 -17.035  1.00  0.00     0.043 A 
HETATM   15  C   LIG     1     -24.543 -21.854 -16.224  1.00  0.00     0.020 A 
ENDBRANCH   6   9
ENDBRANCH   2   5
BRANCH   3  16
HETATM   16  C   LIG     1     -19.858 -20.268 -11.225  1.00  0.00     0.053 A 
HETATM   17  C   LIG     1     -19.483 -18.990 -11.588  1.00  0.00     0.026 A 
HETATM   18 BR   LIG     1     -19.801 -18.281 -13.319  1.00  0.00    -0.050 Br
HETATM   19  C   LIG     1     -18.843 -18.181 -10.649  1.00  0.00     0.023 A 
HETATM   20  C   LIG     1     -18.592 -18.667  -9.365  1.00  0.00     0.043 A 
HETATM   21  C   LIG     1     -18.980 -19.961  -9.022  1.00  0.00     0.117 A 
HETATM   22  F   LIG     1     -18.738 -20.428  -7.789  1.00  0.00    -0.206 F 
HETATM   23  C   LIG     1     -19.620 -20.771  -9.960  1.00  0.00     0.060 A 
ENDBRANCH   3  16
TORSDOF 3
ENDMDL
MODEL 3
REMARK VINA RESULT:      -9.0      1.560      1.906
REMARK  3 active torsions:
REMARK  status: ('A' for Active; 'I' for Inactive)
REMARK    1  A    between atoms: N_6  and  N_7 
REMARK       I    between atoms: N_6  and  C_10 
REMARK       I    between atoms: N_7  and  C_13 
REMARK    2  A    between atoms: C_8  and  C_10 
REMARK    3  A    between atoms: C_9  and  C_13 
ROOT
HETATM    1  O   LIG     1     -23.205 -19.952 -11.252  1.00  0.00    -0.266 OA
HETATM    2  N   LIG     1     -21.816 -21.534 -12.219  1.00  0.00    -0.263 N 
HETATM    3  C   LIG     1     -22.105 -20.489 -11.362  1.00  0.00     0.271 C 
HETATM    4  H   LIG     1     -20.900 -21.961 -12.305  1.00  0.00     0.190 HD
ENDROOT
BRANCH   2   5
HETATM    5  N   LIG     1     -22.820 -22.030 -13.017  1.00  0.00    -0.263 N 
HETATM    6  C   LIG     1     -22.712 -21.944 -14.406  1.00  0.00     0.270 C 
HETATM    7  O   LIG     1     -21.729 -21.429 -14.969  1.00  0.00    -0.266 OA
HETATM    8  H   LIG     1     -23.640 -22.381 -12.533  1.00  0.00     0.190 HD
BRANCH   6   9
HETATM    9  C   LIG     1     -23.820 -22.473 -15.186  1.00  0.00     0.033 A 
HETATM   10  C   LIG     1     -24.473 -21.659 -16.111  1.00  0.00     0.020 A 
HETATM   11  C   LIG     1     -25.535 -22.167 -16.859  1.00  0.00     0.043 A 
HETATM   12  C   LIG     1     -25.943 -23.489 -16.683  1.00  0.00     0.116 A 
HETATM   13  F   LIG     1     -26.963 -23.976 -17.401  1.00  0.00    -0.206 F 
HETATM   14  C   LIG     1     -25.290 -24.303 -15.758  1.00  0.00     0.043 A 
HETATM   15  C   LIG     1     -24.228 -23.795 -15.009  1.00  0.00     0.020 A 
ENDBRANCH   6   9
ENDBRANCH   2   5
BRANCH   3  16
HETATM   16  C   LIG     1     -20.967 -19.993 -10.545  1.00  0.00     0.053 A 
HETATM   17  C   LIG     1     -20.081 -19.061 -11.043  1.00  0.00     0.026 A 
HETATM   18 BR   LIG     1     -20.232 -18.335 -12.790  1.00  0.00    -0.050 Br
HETATM   19  C   LIG     1     -19.028 -18.629 -10.237  1.00  0.00     0.023 A 
HETATM   20  C   LIG     1     -18.884 -19.139  -8.946  1.00  0.00     0.043 A 
HETATM   21  C   LIG     1     -19.791 -20.081  -8.463  1.00  0.00     0.117 A 
HETATM   22  F   LIG     1     -19.652 -20.571  -7.224  1.00  0.00    -0.206 F 
HETATM   23  C   LIG     1     -20.844 -20.513  -9.270  1.00  0.00     0.060 A 
ENDBRANCH   3  16
TORSDOF 3
ENDMDL
MODEL 4
REMARK VINA RESULT:      -8.8      5.541      6.560
REMARK  3 active torsions:
REMARK  status: ('A' for Active; 'I' for Inactive)
REMARK    1  A    between atoms: N_6  and  N_7 
REMARK       I    between atoms: N_6  and  C_10 
REMARK       I    between atoms: N_7  and  C_13 
REMARK    2  A    between atoms: C_8  and  C_10 
REMARK    3  A    between atoms: C_9  and  C_13 
ROOT
HETATM    1  O   LIG     1     -18.789 -17.776 -13.543  1.00  0.00    -0.266 OA
HETATM    2  N   LIG     1     -21.064 -18.182 -13.390  1.00  0.00    -0.263 N 
HETATM    3  C   LIG     1     -19.735 -18.423 -13.100  1.00  0.00     0.271 C 
HETATM    4  H   LIG     1     -21.835 -18.731 -13.023  1.00  0.00     0.190 HD
ENDROOT
BRANCH   2   5
HETATM    5  N   LIG     1     -21.378 -17.142 -14.234  1.00  0.00    -0.263 N 
HETATM    6  C   LIG     1     -22.636 -16.541 -14.160  1.00  0.00     0.270 C 
HETATM    7  O   LIG     1     -23.505 -16.908 -13.348  1.00  0.00    -0.266 OA
HETATM    8  H   LIG     1     -20.678 -16.909 -14.930  1.00  0.00     0.190 HD
BRANCH   6   9
HETATM    9  C   LIG     1     -22.903 -15.460 -15.095  1.00  0.00     0.033 A 
HETATM   10  C   LIG     1     -24.174 -15.320 -15.654  1.00  0.00     0.020 A 
HETATM   11  C   LIG     1     -24.430 -14.284 -16.551  1.00  0.00     0.043 A 
HETATM   12  C   LIG     1     -23.418 -13.385 -16.887  1.00  0.00     0.116 A 
HETATM   13  F   LIG     1     -23.665 -12.390 -17.748  1.00  0.00    -0.206 F 
HETATM   14  C   LIG     1     -22.147 -13.524 -16.329  1.00  0.00     0.043 A 
HETATM   15  C   LIG     1     -21.891 -14.562 -15.432  1.00  0.00     0.020 A 
ENDBRANCH   6   9
ENDBRANCH   2   5
BRANCH   3  16
HETATM   16  C   LIG     1     -19.472 -19.573 -12.196  1.00  0.00     0.053 A 
HETATM   17  C   LIG     1     -19.536 -20.873 -12.656  1.00  0.00     0.026 A 
HETATM   18 BR   LIG     1     -19.960 -21.304 -14.455  1.00  0.00    -0.050 Br
HETATM   19  C   LIG     1     -19.282 -21.918 -11.768  1.00  0.00     0.023 A 
HETATM   20  C   LIG     1     -18.967 -21.641 -10.437  1.00  0.00     0.043 A 
HETATM   21  C   LIG     1     -18.907 -20.320  -9.995  1.00  0.00     0.117 A 
HETATM   22  F   LIG     1     -18.606 -20.054  -8.717  1.00  0.00    -0.206 F 
HETATM   23  C   LIG     1     -19.162 -19.275 -10.883  1.00  0.00     0.060 A 
ENDBRANCH   3  16
TORSDOF 3
ENDMDL
MODEL 5
REMARK VINA RESULT:      -8.6      2.931      3.321
REMARK  3 active torsions:
REMARK  status: ('A' for Active; 'I' for Inactive)
REMARK    1  A    between atoms: N_6  and  N_7 
REMARK       I    between atoms: N_6  and  C_10 
REMARK       I    between atoms: N_7  and  C_13 
REMARK    2  A    between atoms: C_8  and  C_10 
REMARK    3  A    between atoms: C_9  and  C_13 
ROOT
HETATM    1  O   LIG     1     -22.723 -18.604 -14.143  1.00  0.00    -0.266 OA
HETATM    2  N   LIG     1     -21.292 -20.415 -14.334  1.00  0.00    -0.263 N 
HETATM    3  C   LIG     1     -21.646 -19.148 -13.911  1.00  0.00     0.271 C 
HETATM    4  H   LIG     1     -20.394 -20.848 -14.141  1.00  0.00     0.190 HD
ENDROOT
BRANCH   2   5
HETATM    5  N   LIG     1     -22.197 -21.143 -15.070  1.00  0.00    -0.263 N 
HETATM    6  C   LIG     1     -23.095 -21.994 -14.424  1.00  0.00     0.270 C 
HETATM    7  O   LIG     1     -23.117 -22.128 -13.187  1.00  0.00    -0.266 OA
HETATM    8  H   LIG     1     -22.112 -21.068 -16.078  1.00  0.00     0.190 HD
BRANCH   6   9
HETATM    9  C   LIG     1     -24.011 -22.745 -15.267  1.00  0.00     0.033 A 
HETATM   10  C   LIG     1     -24.737 -22.091 -16.263  1.00  0.00     0.020 A 
HETATM   11  C   LIG     1     -25.615 -22.812 -17.072  1.00  0.00     0.043 A 
HETATM   12  C   LIG     1     -25.767 -24.186 -16.887  1.00  0.00     0.116 A 
HETATM   13  F   LIG     1     -26.610 -24.877 -17.664  1.00  0.00    -0.206 F 
HETATM   14  C   LIG     1     -25.041 -24.840 -15.892  1.00  0.00     0.043 A 
HETATM   15  C   LIG     1     -24.163 -24.119 -15.082  1.00  0.00     0.020 A 
ENDBRANCH   6   9
ENDBRANCH   2   5
BRANCH   3  16
HETATM   16  C   LIG     1     -20.611 -18.414 -13.137  1.00  0.00     0.053 A 
HETATM   17  C   LIG     1     -20.450 -18.622 -11.783  1.00  0.00     0.026 A 
HETATM   18 BR   LIG     1     -21.517 -19.845 -10.800  1.00  0.00    -0.050 Br
HETATM   19  C   LIG     1     -19.464 -17.908 -11.101  1.00  0.00     0.023 A 
HETATM   20  C   LIG     1     -18.660 -16.999 -11.790  1.00  0.00     0.043 A 
HETATM   21  C   LIG     1     -18.840 -16.806 -13.158  1.00  0.00     0.117 A 
HETATM   22  F   LIG     1     -18.068 -15.933 -13.819  1.00  0.00    -0.206 F 
HETATM   23  C   LIG     1     -19.826 -17.520 -13.840  1.00  0.00     0.060 A 
ENDBRANCH   3  16
TORSDOF 3
ENDMDL
MODEL 6
REMARK VINA RESULT:      -8.5      4.737      5.370
REMARK  3 active torsions:
REMARK  status: ('A' for Active; 'I' for Inactive)
REMARK    1  A    between atoms: N_6  and  N_7 
REMARK       I    between atoms: N_6  and  C_10 
REMARK       I    between atoms: N_7  and  C_13 
REMARK    2  A    between atoms: C_8  and  C_10 
REMARK    3  A    between atoms: C_9  and  C_13 
ROOT
HETATM    1  O   LIG     1     -25.393 -18.043 -14.309  1.00  0.00    -0.266 OA
HETATM    2  N   LIG     1     -23.760 -18.573 -15.864  1.00  0.00    -0.263 N 
HETATM    3  C   LIG     1     -24.379 -17.753 -14.940  1.00  0.00     0.271 C 
HETATM    4  H   LIG     1     -22.926 -18.316 -16.383  1.00  0.00     0.190 HD
ENDROOT
BRANCH   2   5
HETATM    5  N   LIG     1     -24.299 -19.814 -16.112  1.00  0.00    -0.263 N 
HETATM    6  C   LIG     1     -23.804 -20.935 -15.444  1.00  0.00     0.270 C 
HETATM    7  O   LIG     1     -22.879 -20.864 -14.614  1.00  0.00    -0.266 OA
HETATM    8  H   LIG     1     -25.003 -19.853 -16.842  1.00  0.00     0.190 HD
BRANCH   6   9
HETATM    9  C   LIG     1     -24.411 -22.215 -15.770  1.00  0.00     0.033 A 
HETATM   10  C   LIG     1     -25.380 -22.292 -16.771  1.00  0.00     0.020 A 
HETATM   11  C   LIG     1     -25.961 -23.520 -17.084  1.00  0.00     0.043 A 
HETATM   12  C   LIG     1     -25.574 -24.671 -16.398  1.00  0.00     0.116 A 
HETATM   13  F   LIG     1     -26.133 -25.850 -16.700  1.00  0.00    -0.206 F 
HETATM   14  C   LIG     1     -24.605 -24.595 -15.398  1.00  0.00     0.043 A 
HETATM   15  C   LIG     1     -24.024 -23.366 -15.084  1.00  0.00     0.020 A 
ENDBRANCH   6   9
ENDBRANCH   2   5
BRANCH   3  16
HETATM   16  C   LIG     1     -23.750 -16.421 -14.737  1.00  0.00     0.053 A 
HETATM   17  C   LIG     1     -22.778 -16.228 -13.778  1.00  0.00     0.026 A 
HETATM   18 BR   LIG     1     -22.163 -17.623 -12.647  1.00  0.00    -0.050 Br
HETATM   19  C   LIG     1     -22.220 -14.959 -13.626  1.00  0.00     0.023 A 
HETATM   20  C   LIG     1     -22.647 -13.908 -14.439  1.00  0.00     0.043 A 
HETATM   21  C   LIG     1     -23.630 -14.127 -15.402  1.00  0.00     0.117 A 
HETATM   22  F   LIG     1     -24.040 -13.118 -16.182  1.00  0.00    -0.206 F 
HETATM   23  C   LIG     1     -24.189 -15.396 -15.554  1.00  0.00     0.060 A 
ENDBRANCH   3  16
TORSDOF 3
ENDMDL
MODEL 7
REMARK VINA RESULT:      -8.5      6.588      8.341
REMARK  3 active torsions:
REMARK  status: ('A' for Active; 'I' for Inactive)
REMARK    1  A    between atoms: N_6  and  N_7 
REMARK       I    between atoms: N_6  and  C_10 
REMARK       I    between atoms: N_7  and  C_13 
REMARK    2  A    between atoms: C_8  and  C_10 
REMARK    3  A    between atoms: C_9  and  C_13 
ROOT
HETATM    1  O   LIG     1     -20.748 -14.809 -14.634  1.00  0.00    -0.266 OA
HETATM    2  N   LIG     1     -22.227 -16.543 -15.046  1.00  0.00    -0.263 N 
HETATM    3  C   LIG     1     -21.789 -15.235 -15.130  1.00  0.00     0.271 C 
HETATM    4  H   LIG     1     -23.094 -16.879 -15.454  1.00  0.00     0.190 HD
ENDROOT
BRANCH   2   5
HETATM    5  N   LIG     1     -21.458 -17.456 -14.363  1.00  0.00    -0.263 N 
HETATM    6  C   LIG     1     -21.868 -18.787 -14.278  1.00  0.00     0.270 C 
HETATM    7  O   LIG     1     -22.919 -19.197 -14.803  1.00  0.00    -0.266 OA
HETATM    8  H   LIG     1     -20.644 -17.081 -13.887  1.00  0.00     0.190 HD
BRANCH   6   9
HETATM    9  C   LIG     1     -21.014 -19.691 -13.525  1.00  0.00     0.033 A 
HETATM   10  C   LIG     1     -20.517 -20.846 -14.129  1.00  0.00     0.020 A 
HETATM   11  C   LIG     1     -19.698 -21.713 -13.407  1.00  0.00     0.043 A 
HETATM   12  C   LIG     1     -19.373 -21.425 -12.082  1.00  0.00     0.116 A 
HETATM   13  F   LIG     1     -18.586 -22.258 -11.389  1.00  0.00    -0.206 F 
HETATM   14  C   LIG     1     -19.869 -20.270 -11.477  1.00  0.00     0.043 A 
HETATM   15  C   LIG     1     -20.690 -19.403 -12.200  1.00  0.00     0.020 A 
ENDBRANCH   6   9
ENDBRANCH   2   5
BRANCH   3  16
HETATM   16  C   LIG     1     -22.681 -14.303 -15.867  1.00  0.00     0.053 A 
HETATM   17  C   LIG     1     -23.294 -13.245 -15.228  1.00  0.00     0.026 A 
HETATM   18 BR   LIG     1     -23.058 -12.888 -13.379  1.00  0.00    -0.050 Br
HETATM   19  C   LIG     1     -24.123 -12.399 -15.964  1.00  0.00     0.023 A 
HETATM   20  C   LIG     1     -24.321 -12.629 -17.326  1.00  0.00     0.043 A 
HETATM   21  C   LIG     1     -23.691 -13.704 -17.951  1.00  0.00     0.117 A 
HETATM   22  F   LIG     1     -23.882 -13.925 -19.258  1.00  0.00    -0.206 F 
HETATM   23  C   LIG     1     -22.862 -14.550 -17.215  1.00  0.00     0.060 A 
ENDBRANCH   3  16
TORSDOF 3
ENDMDL
MODEL 8
REMARK VINA RESULT:      -8.4      2.019      8.251
REMARK  3 active torsions:
REMARK  status: ('A' for Active; 'I' for Inactive)
REMARK    1  A    between atoms: N_6  and  N_7 
REMARK       I    between atoms: N_6  and  C_10 
REMARK       I    between atoms: N_7  and  C_13 
REMARK    2  A    between atoms: C_8  and  C_10 
REMARK    3  A    between atoms: C_9  and  C_13 
ROOT
HETATM    1  O   LIG     1     -21.564 -21.735 -14.596  1.00  0.00    -0.266 OA
HETATM    2  N   LIG     1     -23.134 -21.987 -12.912  1.00  0.00    -0.263 N 
HETATM    3  C   LIG     1     -22.715 -21.959 -14.228  1.00  0.00     0.271 C 
HETATM    4  H   LIG     1     -24.091 -22.165 -12.624  1.00  0.00     0.190 HD
ENDROOT
BRANCH   2   5
HETATM    5  N   LIG     1     -22.211 -21.751 -11.919  1.00  0.00    -0.263 N 
HETATM    6  C   LIG     1     -22.201 -20.523 -11.255  1.00  0.00     0.270 C 
HETATM    7  O   LIG     1     -23.005 -19.612 -11.524  1.00  0.00    -0.266 OA
HETATM    8  H   LIG     1     -21.525 -22.483 -11.769  1.00  0.00     0.190 HD
BRANCH   6   9
HETATM    9  C   LIG     1     -21.187 -20.339 -10.230  1.00  0.00     0.033 A 
HETATM   10  C   LIG     1     -21.407 -19.440  -9.186  1.00  0.00     0.020 A 
HETATM   11  C   LIG     1     -20.434 -19.264  -8.202  1.00  0.00     0.043 A 
HETATM   12  C   LIG     1     -19.242 -19.986  -8.262  1.00  0.00     0.116 A 
HETATM   13  F   LIG     1     -18.308 -19.816  -7.317  1.00  0.00    -0.206 F 
HETATM   14  C   LIG     1     -19.022 -20.885  -9.305  1.00  0.00     0.043 A 
HETATM   15  C   LIG     1     -19.995 -21.060 -10.290  1.00  0.00     0.020 A 
ENDBRANCH   6   9
ENDBRANCH   2   5
BRANCH   3  16
HETATM   16  C   LIG     1     -23.770 -22.204 -15.245  1.00  0.00     0.053 A 
HETATM   17  C   LIG     1     -24.414 -21.158 -15.874  1.00  0.00     0.026 A 
HETATM   18 BR   LIG     1     -24.017 -19.340 -15.505  1.00  0.00    -0.050 Br
HETATM   19  C   LIG     1     -25.399 -21.441 -16.821  1.00  0.00     0.023 A 
HETATM   20  C   LIG     1     -25.719 -22.766 -17.120  1.00  0.00     0.043 A 
HETATM   21  C   LIG     1     -25.055 -23.806 -16.472  1.00  0.00     0.117 A 
HETATM   22  F   LIG     1     -25.362 -25.078 -16.759  1.00  0.00    -0.206 F 
HETATM   23  C   LIG     1     -24.070 -23.524 -15.525  1.00  0.00     0.060 A 
ENDBRANCH   3  16
TORSDOF 3
ENDMDL
MODEL 9
REMARK VINA RESULT:      -8.3      5.039      5.577
REMARK  3 active torsions:
REMARK  status: ('A' for Active; 'I' for Inactive)
REMARK    1  A    between atoms: N_6  and  N_7 
REMARK       I    between atoms: N_6  and  C_10 
REMARK       I    between atoms: N_7  and  C_13 
REMARK    2  A    between atoms: C_8  and  C_10 
REMARK    3  A    between atoms: C_9  and  C_13 
ROOT
HETATM    1  O   LIG     1     -25.130 -17.053 -14.832  1.00  0.00    -0.266 OA
HETATM    2  N   LIG     1     -23.023 -17.865 -15.347  1.00  0.00    -0.263 N 
HETATM    3  C   LIG     1     -23.910 -16.911 -14.886  1.00  0.00     0.271 C 
HETATM    4  H   LIG     1     -22.018 -17.730 -15.394  1.00  0.00     0.190 HD
ENDROOT
BRANCH   2   5
HETATM    5  N   LIG     1     -23.517 -19.073 -15.781  1.00  0.00    -0.263 N 
HETATM    6  C   LIG     1     -23.504 -20.178 -14.929  1.00  0.00     0.270 C 
HETATM    7  O   LIG     1     -23.058 -20.121 -13.768  1.00  0.00    -0.266 OA
HETATM    8  H   LIG     1     -23.811 -19.108 -16.752  1.00  0.00     0.190 HD
BRANCH   6   9
HETATM    9  C   LIG     1     -24.027 -21.425 -15.462  1.00  0.00     0.033 A 
HETATM   10  C   LIG     1     -24.952 -21.404 -16.506  1.00  0.00     0.020 A 
HETATM   11  C   LIG     1     -25.453 -22.600 -17.018  1.00  0.00     0.043 A 
HETATM   12  C   LIG     1     -25.028 -23.819 -16.487  1.00  0.00     0.116 A 
HETATM   13  F   LIG     1     -25.510 -24.967 -16.979  1.00  0.00    -0.206 F 
HETATM   14  C   LIG     1     -24.103 -23.841 -15.444  1.00  0.00     0.043 A 
HETATM   15  C   LIG     1     -23.603 -22.643 -14.931  1.00  0.00     0.020 A 
ENDBRANCH   6   9
ENDBRANCH   2   5
BRANCH   3  16
HETATM   16  C   LIG     1     -23.305 -15.625 -14.451  1.00  0.00     0.053 A 
HETATM   17  C   LIG     1     -23.582 -14.446 -15.111  1.00  0.00     0.026 A 
HETATM   18 BR   LIG     1     -24.742 -14.358 -16.610  1.00  0.00    -0.050 Br
HETATM   19  C   LIG     1     -22.988 -13.265 -14.665  1.00  0.00     0.023 A 
HETATM   20  C   LIG     1     -22.129 -13.290 -13.566  1.00  0.00     0.043 A 
HETATM   21  C   LIG     1     -21.864 -14.493 -12.914  1.00  0.00     0.117 A 
HETATM   22  F   LIG     1     -21.040 -14.516 -11.859  1.00  0.00    -0.206 F 
HETATM   23  C   LIG     1     -22.458 -15.674 -13.360  1.00  0.00     0.060 A 
ENDBRANCH   3  16
TORSDOF 3
ENDMDL
