MODEL 1
REMARK VINA RESULT:      -7.9      0.000      0.000
REMARK  14 active torsions:
REMARK  status: ('A' for Active; 'I' for Inactive)
REMARK    1  A    between atoms: O_1  and  C_14 
REMARK    2  A    between atoms: O_1  and  C_21 
REMARK    3  A    between atoms: O_4  and  C_17 
REMARK    4  A    between atoms: O_4  and  C_22 
REMARK    5  A    between atoms: N_6  and  C_8 
REMARK       I    between atoms: N_6  and  C_12 
REMARK    6  A    between atoms: N_7  and  C_10 
REMARK    7  A    between atoms: C_8  and  C_9 
REMARK    8  A    between atoms: C_8  and  C_14 
REMARK    9  A    between atoms: C_9  and  C_11 
REMARK   10  A    between atoms: C_10  and  C_12 
REMARK   11  A    between atoms: C_10  and  C_13 
REMARK   12  A    between atoms: C_13  and  C_17 
REMARK   13  A    between atoms: C_21  and  C_23 
REMARK   14  A    between atoms: C_22  and  C_24 
ROOT
HETATM    1  O   LIG     1     -22.622 -16.628 -13.372  1.00  0.00    -0.271 OA
HETATM    2  N   LIG     1     -20.859 -16.280 -11.902  1.00  0.00    -0.345 N 
HETATM    3  C   LIG     1     -21.421 -16.660 -13.113  1.00  0.00     0.252 C 
HETATM    4  H   LIG     1     -19.854 -16.357 -11.774  1.00  0.00     0.163 HD
ENDROOT
BRANCH   2   5
HETATM    5  C   LIG     1     -21.637 -15.793 -10.786  1.00  0.00     0.188 C 
BRANCH   5   6
HETATM    6  C   LIG     1     -21.205 -16.460  -9.471  1.00  0.00     0.074 C 
BRANCH   6   7
HETATM    7  C   LIG     1     -22.321 -16.671  -8.473  1.00  0.00    -0.056 A 
HETATM    8  C   LIG     1     -22.047 -17.246  -7.231  1.00  0.00     0.007 A 
HETATM    9  C   LIG     1     -23.077 -17.441  -6.311  1.00  0.00     0.001 A 
HETATM   10  C   LIG     1     -24.380 -17.062  -6.632  1.00  0.00     0.000 A 
HETATM   11  C   LIG     1     -24.654 -16.487  -7.873  1.00  0.00     0.001 A 
HETATM   12  C   LIG     1     -23.624 -16.292  -8.793  1.00  0.00     0.007 A 
ENDBRANCH   6   7
ENDBRANCH   5   6
BRANCH   5  13
HETATM   13  C   LIG     1     -21.620 -14.273 -10.687  1.00  0.00     0.282 C 
HETATM   14  O   LIG     1     -22.181 -13.550 -11.504  1.00  0.00    -0.263 OA
BRANCH  13  15
HETATM   15  O   LIG     1     -20.905 -13.836  -9.612  1.00  0.00    -0.316 OA
BRANCH  15  16
HETATM   16  C   LIG     1     -21.585 -12.924  -8.743  1.00  0.00     0.205 C 
BRANCH  16  17
HETATM   17  C   LIG     1     -21.266 -13.281  -7.329  1.00  0.00    -0.011 C 
HETATM   18  C   LIG     1     -20.930 -12.390  -6.391  1.00  0.00     0.009 C 
ENDBRANCH  16  17
ENDBRANCH  15  16
ENDBRANCH  13  15
ENDBRANCH   5  13
ENDBRANCH   2   5
BRANCH   3  19
HETATM   19  C   LIG     1     -20.373 -17.164 -14.103  1.00  0.00     0.318 C 
BRANCH  19  20
HETATM   20  N   LIG     1     -20.068 -16.052 -15.003  1.00  0.00     0.092 N 
HETATM   21  H   LIG     1     -20.775 -16.001 -15.735  1.00  0.00     0.313 HD
HETATM   22  H   LIG     1     -20.128 -15.173 -14.490  1.00  0.00     0.313 HD
ENDBRANCH  19  20
BRANCH  19  23
HETATM   23  C   LIG     1     -19.109 -17.592 -13.356  1.00  0.00     0.156 C 
BRANCH  23  24
HETATM   24  C   LIG     1     -19.198 -19.037 -12.927  1.00  0.00     0.261 C 
HETATM   25  O   LIG     1     -19.317 -19.973 -13.708  1.00  0.00    -0.265 OA
BRANCH  24  26
HETATM   26  O   LIG     1     -19.094 -19.129 -11.571  1.00  0.00    -0.318 OA
BRANCH  26  27
HETATM   27  C   LIG     1     -19.069 -20.458 -11.043  1.00  0.00     0.205 C 
BRANCH  27  28
HETATM   28  C   LIG     1     -19.110 -20.384  -9.552  1.00  0.00    -0.011 C 
HETATM   29  C   LIG     1     -18.832 -19.280  -8.851  1.00  0.00     0.009 C 
ENDBRANCH  27  28
ENDBRANCH  26  27
ENDBRANCH  24  26
ENDBRANCH  23  24
ENDBRANCH  19  23
ENDBRANCH   3  19
TORSDOF 14
ENDMDL
MODEL 2
REMARK VINA RESULT:      -7.8      1.960      3.460
REMARK  14 active torsions:
REMARK  status: ('A' for Active; 'I' for Inactive)
REMARK    1  A    between atoms: O_1  and  C_14 
REMARK    2  A    between atoms: O_1  and  C_21 
REMARK    3  A    between atoms: O_4  and  C_17 
REMARK    4  A    between atoms: O_4  and  C_22 
REMARK    5  A    between atoms: N_6  and  C_8 
REMARK       I    between atoms: N_6  and  C_12 
REMARK    6  A    between atoms: N_7  and  C_10 
REMARK    7  A    between atoms: C_8  and  C_9 
REMARK    8  A    between atoms: C_8  and  C_14 
REMARK    9  A    between atoms: C_9  and  C_11 
REMARK   10  A    between atoms: C_10  and  C_12 
REMARK   11  A    between atoms: C_10  and  C_13 
REMARK   12  A    between atoms: C_13  and  C_17 
REMARK   13  A    between atoms: C_21  and  C_23 
REMARK   14  A    between atoms: C_22  and  C_24 
ROOT
HETATM    1  O   LIG     1     -21.323 -16.454 -12.145  1.00  0.00    -0.271 OA
HETATM    2  N   LIG     1     -20.559 -15.490 -10.177  1.00  0.00    -0.345 N 
HETATM    3  C   LIG     1     -20.559 -16.446 -11.182  1.00  0.00     0.252 C 
HETATM    4  H   LIG     1     -19.898 -15.574  -9.409  1.00  0.00     0.163 HD
ENDROOT
BRANCH   2   5
HETATM    5  C   LIG     1     -21.474 -14.372 -10.146  1.00  0.00     0.188 C 
BRANCH   5   6
HETATM    6  C   LIG     1     -21.932 -14.066  -8.712  1.00  0.00     0.074 C 
BRANCH   6   7
HETATM    7  C   LIG     1     -22.708 -15.178  -8.045  1.00  0.00    -0.056 A 
HETATM    8  C   LIG     1     -24.012 -15.463  -8.454  1.00  0.00     0.007 A 
HETATM    9  C   LIG     1     -24.728 -16.489  -7.837  1.00  0.00     0.001 A 
HETATM   10  C   LIG     1     -24.141 -17.230  -6.812  1.00  0.00     0.000 A 
HETATM   11  C   LIG     1     -22.838 -16.946  -6.403  1.00  0.00     0.001 A 
HETATM   12  C   LIG     1     -22.122 -15.920  -7.020  1.00  0.00     0.007 A 
ENDBRANCH   6   7
ENDBRANCH   5   6
BRANCH   5  13
HETATM   13  C   LIG     1     -20.909 -13.139 -10.840  1.00  0.00     0.282 C 
HETATM   14  O   LIG     1     -21.331 -12.008 -10.626  1.00  0.00    -0.263 OA
BRANCH  13  15
HETATM   15  O   LIG     1     -19.913 -13.454 -11.716  1.00  0.00    -0.316 OA
BRANCH  15  16
HETATM   16  C   LIG     1     -20.186 -13.174 -13.093  1.00  0.00     0.205 C 
BRANCH  16  17
HETATM   17  C   LIG     1     -19.177 -13.880 -13.935  1.00  0.00    -0.011 C 
HETATM   18  C   LIG     1     -17.941 -14.181 -13.526  1.00  0.00     0.009 C 
ENDBRANCH  16  17
ENDBRANCH  15  16
ENDBRANCH  13  15
ENDBRANCH   5  13
ENDBRANCH   2   5
BRANCH   3  19
HETATM   19  C   LIG     1     -19.509 -17.529 -10.949  1.00  0.00     0.318 C 
BRANCH  19  20
HETATM   20  N   LIG     1     -18.214 -16.954 -11.315  1.00  0.00     0.092 N 
HETATM   21  H   LIG     1     -18.009 -16.160 -10.710  1.00  0.00     0.313 HD
HETATM   22  H   LIG     1     -17.477 -17.637 -11.144  1.00  0.00     0.313 HD
ENDBRANCH  19  20
BRANCH  19  23
HETATM   23  C   LIG     1     -19.498 -17.942  -9.477  1.00  0.00     0.156 C 
BRANCH  23  24
HETATM   24  C   LIG     1     -19.152 -19.404  -9.327  1.00  0.00     0.261 C 
HETATM   25  O   LIG     1     -19.051 -19.973  -8.248  1.00  0.00    -0.265 OA
BRANCH  24  26
HETATM   26  O   LIG     1     -19.006 -19.977 -10.555  1.00  0.00    -0.318 OA
BRANCH  26  27
HETATM   27  C   LIG     1     -18.990 -21.408 -10.570  1.00  0.00     0.205 C 
BRANCH  27  28
HETATM   28  C   LIG     1     -19.315 -21.878 -11.949  1.00  0.00    -0.011 C 
HETATM   29  C   LIG     1     -19.617 -21.063 -12.965  1.00  0.00     0.009 C 
ENDBRANCH  27  28
ENDBRANCH  26  27
ENDBRANCH  24  26
ENDBRANCH  23  24
ENDBRANCH  19  23
ENDBRANCH   3  19
TORSDOF 14
ENDMDL
MODEL 3
REMARK VINA RESULT:      -7.8      2.836      6.294
REMARK  14 active torsions:
REMARK  status: ('A' for Active; 'I' for Inactive)
REMARK    1  A    between atoms: O_1  and  C_14 
REMARK    2  A    between atoms: O_1  and  C_21 
REMARK    3  A    between atoms: O_4  and  C_17 
REMARK    4  A    between atoms: O_4  and  C_22 
REMARK    5  A    between atoms: N_6  and  C_8 
REMARK       I    between atoms: N_6  and  C_12 
REMARK    6  A    between atoms: N_7  and  C_10 
REMARK    7  A    between atoms: C_8  and  C_9 
REMARK    8  A    between atoms: C_8  and  C_14 
REMARK    9  A    between atoms: C_9  and  C_11 
REMARK   10  A    between atoms: C_10  and  C_12 
REMARK   11  A    between atoms: C_10  and  C_13 
REMARK   12  A    between atoms: C_13  and  C_17 
REMARK   13  A    between atoms: C_21  and  C_23 
REMARK   14  A    between atoms: C_22  and  C_24 
ROOT
HETATM    1  O   LIG     1     -21.165 -16.765 -13.547  1.00  0.00    -0.271 OA
HETATM    2  N   LIG     1     -20.454 -15.767 -11.575  1.00  0.00    -0.345 N 
HETATM    3  C   LIG     1     -20.865 -15.763 -12.901  1.00  0.00     0.252 C 
HETATM    4  H   LIG     1     -20.210 -14.888 -11.127  1.00  0.00     0.163 HD
ENDROOT
BRANCH   2   5
HETATM    5  C   LIG     1     -20.332 -16.971 -10.787  1.00  0.00     0.188 C 
BRANCH   5   6
HETATM    6  C   LIG     1     -18.991 -17.675 -11.048  1.00  0.00     0.074 C 
BRANCH   6   7
HETATM    7  C   LIG     1     -19.102 -19.148 -11.369  1.00  0.00    -0.056 A 
HETATM    8  C   LIG     1     -19.011 -20.094 -10.348  1.00  0.00     0.007 A 
HETATM    9  C   LIG     1     -19.114 -21.453 -10.644  1.00  0.00     0.001 A 
HETATM   10  C   LIG     1     -19.306 -21.867 -11.962  1.00  0.00     0.000 A 
HETATM   11  C   LIG     1     -19.398 -20.921 -12.984  1.00  0.00     0.001 A 
HETATM   12  C   LIG     1     -19.296 -19.562 -12.687  1.00  0.00     0.007 A 
ENDBRANCH   6   7
ENDBRANCH   5   6
BRANCH   5  13
HETATM   13  C   LIG     1     -20.564 -16.720  -9.302  1.00  0.00     0.282 C 
HETATM   14  O   LIG     1     -19.751 -16.133  -8.596  1.00  0.00    -0.263 OA
BRANCH  13  15
HETATM   15  O   LIG     1     -21.751 -17.234  -8.873  1.00  0.00    -0.316 OA
BRANCH  15  16
HETATM   16  C   LIG     1     -21.695 -18.004  -7.668  1.00  0.00     0.205 C 
BRANCH  16  17
HETATM   17  C   LIG     1     -22.503 -17.313  -6.620  1.00  0.00    -0.011 C 
HETATM   18  C   LIG     1     -23.828 -17.150  -6.684  1.00  0.00     0.009 C 
ENDBRANCH  16  17
ENDBRANCH  15  16
ENDBRANCH  13  15
ENDBRANCH   5  13
ENDBRANCH   2   5
BRANCH   3  19
HETATM   19  C   LIG     1     -20.875 -14.359 -13.498  1.00  0.00     0.318 C 
BRANCH  19  20
HETATM   20  N   LIG     1     -20.587 -14.501 -14.926  1.00  0.00     0.092 N 
HETATM   21  H   LIG     1     -21.459 -14.611 -15.441  1.00  0.00     0.313 HD
HETATM   22  H   LIG     1     -20.160 -13.643 -15.274  1.00  0.00     0.313 HD
ENDBRANCH  19  20
BRANCH  19  23
HETATM   23  C   LIG     1     -22.250 -13.716 -13.305  1.00  0.00     0.156 C 
BRANCH  23  24
HETATM   24  C   LIG     1     -23.127 -13.942 -14.514  1.00  0.00     0.261 C 
HETATM   25  O   LIG     1     -23.706 -14.996 -14.747  1.00  0.00    -0.265 OA
BRANCH  24  26
HETATM   26  O   LIG     1     -23.192 -12.805 -15.263  1.00  0.00    -0.318 OA
BRANCH  26  27
HETATM   27  C   LIG     1     -24.335 -12.694 -16.117  1.00  0.00     0.205 C 
BRANCH  27  28
HETATM   28  C   LIG     1     -23.878 -12.729 -17.537  1.00  0.00    -0.011 C 
HETATM   29  C   LIG     1     -23.803 -13.844 -18.271  1.00  0.00     0.009 C 
ENDBRANCH  27  28
ENDBRANCH  26  27
ENDBRANCH  24  26
ENDBRANCH  23  24
ENDBRANCH  19  23
ENDBRANCH   3  19
TORSDOF 14
ENDMDL
MODEL 4
REMARK VINA RESULT:      -7.7      1.834      5.637
REMARK  14 active torsions:
REMARK  status: ('A' for Active; 'I' for Inactive)
REMARK    1  A    between atoms: O_1  and  C_14 
REMARK    2  A    between atoms: O_1  and  C_21 
REMARK    3  A    between atoms: O_4  and  C_17 
REMARK    4  A    between atoms: O_4  and  C_22 
REMARK    5  A    between atoms: N_6  and  C_8 
REMARK       I    between atoms: N_6  and  C_12 
REMARK    6  A    between atoms: N_7  and  C_10 
REMARK    7  A    between atoms: C_8  and  C_9 
REMARK    8  A    between atoms: C_8  and  C_14 
REMARK    9  A    between atoms: C_9  and  C_11 
REMARK   10  A    between atoms: C_10  and  C_12 
REMARK   11  A    between atoms: C_10  and  C_13 
REMARK   12  A    between atoms: C_13  and  C_17 
REMARK   13  A    between atoms: C_21  and  C_23 
REMARK   14  A    between atoms: C_22  and  C_24 
ROOT
HETATM    1  O   LIG     1     -20.659 -16.081 -13.680  1.00  0.00    -0.271 OA
HETATM    2  N   LIG     1     -19.638 -15.589 -11.654  1.00  0.00    -0.345 N 
HETATM    3  C   LIG     1     -20.035 -15.310 -12.954  1.00  0.00     0.252 C 
HETATM    4  H   LIG     1     -19.110 -14.893 -11.135  1.00  0.00     0.163 HD
ENDROOT
BRANCH   2   5
HETATM    5  C   LIG     1     -19.920 -16.841 -10.991  1.00  0.00     0.188 C 
BRANCH   5   6
HETATM    6  C   LIG     1     -18.725 -17.802 -11.082  1.00  0.00     0.074 C 
BRANCH   6   7
HETATM    7  C   LIG     1     -19.039 -19.144 -11.703  1.00  0.00    -0.056 A 
HETATM    8  C   LIG     1     -19.298 -19.238 -13.071  1.00  0.00     0.007 A 
HETATM    9  C   LIG     1     -19.588 -20.476 -13.643  1.00  0.00     0.001 A 
HETATM   10  C   LIG     1     -19.619 -21.621 -12.847  1.00  0.00     0.000 A 
HETATM   11  C   LIG     1     -19.360 -21.529 -11.480  1.00  0.00     0.001 A 
HETATM   12  C   LIG     1     -19.070 -20.290 -10.908  1.00  0.00     0.007 A 
ENDBRANCH   6   7
ENDBRANCH   5   6
BRANCH   5  13
HETATM   13  C   LIG     1     -20.386 -16.645  -9.554  1.00  0.00     0.282 C 
HETATM   14  O   LIG     1     -19.605 -16.466  -8.624  1.00  0.00    -0.263 OA
BRANCH  13  15
HETATM   15  O   LIG     1     -21.742 -16.712  -9.439  1.00  0.00    -0.316 OA
BRANCH  15  16
HETATM   16  C   LIG     1     -22.235 -17.430  -8.304  1.00  0.00     0.205 C 
BRANCH  16  17
HETATM   17  C   LIG     1     -23.223 -16.572  -7.586  1.00  0.00    -0.011 C 
HETATM   18  C   LIG     1     -24.295 -16.020  -8.165  1.00  0.00     0.009 C 
ENDBRANCH  16  17
ENDBRANCH  15  16
ENDBRANCH  13  15
ENDBRANCH   5  13
ENDBRANCH   2   5
BRANCH   3  19
HETATM   19  C   LIG     1     -19.579 -13.927 -13.413  1.00  0.00     0.318 C 
BRANCH  19  20
HETATM   20  N   LIG     1     -20.061 -13.752 -14.784  1.00  0.00     0.092 N 
HETATM   21  H   LIG     1     -19.382 -14.140 -15.437  1.00  0.00     0.313 HD
HETATM   22  H   LIG     1     -20.917 -14.290 -14.914  1.00  0.00     0.313 HD
ENDBRANCH  19  20
BRANCH  19  23
HETATM   23  C   LIG     1     -20.177 -12.850 -12.508  1.00  0.00     0.156 C 
BRANCH  23  24
HETATM   24  C   LIG     1     -21.680 -12.981 -12.432  1.00  0.00     0.261 C 
HETATM   25  O   LIG     1     -22.433 -12.745 -13.369  1.00  0.00    -0.265 OA
BRANCH  24  26
HETATM   26  O   LIG     1     -22.048 -13.424 -11.197  1.00  0.00    -0.318 OA
BRANCH  26  27
HETATM   27  C   LIG     1     -21.790 -12.522 -10.116  1.00  0.00     0.205 C 
BRANCH  27  28
HETATM   28  C   LIG     1     -21.910 -13.267  -8.829  1.00  0.00    -0.011 C 
HETATM   29  C   LIG     1     -20.962 -13.288  -7.886  1.00  0.00     0.009 C 
ENDBRANCH  27  28
ENDBRANCH  26  27
ENDBRANCH  24  26
ENDBRANCH  23  24
ENDBRANCH  19  23
ENDBRANCH   3  19
TORSDOF 14
ENDMDL
MODEL 5
REMARK VINA RESULT:      -7.7      1.255      2.307
REMARK  14 active torsions:
REMARK  status: ('A' for Active; 'I' for Inactive)
REMARK    1  A    between atoms: O_1  and  C_14 
REMARK    2  A    between atoms: O_1  and  C_21 
REMARK    3  A    between atoms: O_4  and  C_17 
REMARK    4  A    between atoms: O_4  and  C_22 
REMARK    5  A    between atoms: N_6  and  C_8 
REMARK       I    between atoms: N_6  and  C_12 
REMARK    6  A    between atoms: N_7  and  C_10 
REMARK    7  A    between atoms: C_8  and  C_9 
REMARK    8  A    between atoms: C_8  and  C_14 
REMARK    9  A    between atoms: C_9  and  C_11 
REMARK   10  A    between atoms: C_10  and  C_12 
REMARK   11  A    between atoms: C_10  and  C_13 
REMARK   12  A    between atoms: C_13  and  C_17 
REMARK   13  A    between atoms: C_21  and  C_23 
REMARK   14  A    between atoms: C_22  and  C_24 
ROOT
HETATM    1  O   LIG     1     -22.846 -16.170 -13.314  1.00  0.00    -0.271 OA
HETATM    2  N   LIG     1     -21.138 -15.978 -11.753  1.00  0.00    -0.345 N 
HETATM    3  C   LIG     1     -21.689 -16.385 -12.960  1.00  0.00     0.252 C 
HETATM    4  H   LIG     1     -20.174 -16.217 -11.540  1.00  0.00     0.163 HD
ENDROOT
BRANCH   2   5
HETATM    5  C   LIG     1     -21.876 -15.237 -10.756  1.00  0.00     0.188 C 
BRANCH   5   6
HETATM    6  C   LIG     1     -21.349 -15.528  -9.342  1.00  0.00     0.074 C 
BRANCH   6   7
HETATM    7  C   LIG     1     -22.378 -16.087  -8.387  1.00  0.00    -0.056 A 
HETATM    8  C   LIG     1     -23.735 -15.841  -8.599  1.00  0.00     0.007 A 
HETATM    9  C   LIG     1     -24.684 -16.357  -7.717  1.00  0.00     0.001 A 
HETATM   10  C   LIG     1     -24.277 -17.119  -6.622  1.00  0.00     0.000 A 
HETATM   11  C   LIG     1     -22.920 -17.365  -6.409  1.00  0.00     0.001 A 
HETATM   12  C   LIG     1     -21.971 -16.849  -7.292  1.00  0.00     0.007 A 
ENDBRANCH   6   7
ENDBRANCH   5   6
BRANCH   5  13
HETATM   13  C   LIG     1     -21.916 -13.744 -11.053  1.00  0.00     0.282 C 
HETATM   14  O   LIG     1     -22.935 -13.171 -11.429  1.00  0.00    -0.263 OA
BRANCH  13  15
HETATM   15  O   LIG     1     -20.703 -13.150 -10.870  1.00  0.00    -0.316 OA
BRANCH  15  16
HETATM   16  C   LIG     1     -20.173 -12.457 -12.005  1.00  0.00     0.205 C 
BRANCH  16  17
HETATM   17  C   LIG     1     -19.155 -13.326 -12.665  1.00  0.00    -0.011 C 
HETATM   18  C   LIG     1     -19.057 -13.490 -13.988  1.00  0.00     0.009 C 
ENDBRANCH  16  17
ENDBRANCH  15  16
ENDBRANCH  13  15
ENDBRANCH   5  13
ENDBRANCH   2   5
BRANCH   3  19
HETATM   19  C   LIG     1     -20.697 -17.175 -13.810  1.00  0.00     0.318 C 
BRANCH  19  20
HETATM   20  N   LIG     1     -20.392 -16.355 -14.982  1.00  0.00     0.092 N 
HETATM   21  H   LIG     1     -19.873 -15.526 -14.694  1.00  0.00     0.313 HD
HETATM   22  H   LIG     1     -19.774 -16.871 -15.608  1.00  0.00     0.313 HD
ENDBRANCH  19  20
BRANCH  19  23
HETATM   23  C   LIG     1     -19.419 -17.442 -13.013  1.00  0.00     0.156 C 
BRANCH  23  24
HETATM   24  C   LIG     1     -19.248 -18.918 -12.744  1.00  0.00     0.261 C 
HETATM   25  O   LIG     1     -19.217 -19.771 -13.622  1.00  0.00    -0.265 OA
BRANCH  24  26
HETATM   26  O   LIG     1     -19.106 -19.136 -11.406  1.00  0.00    -0.318 OA
BRANCH  26  27
HETATM   27  C   LIG     1     -19.135 -20.506 -10.997  1.00  0.00     0.205 C 
BRANCH  27  28
HETATM   28  C   LIG     1     -18.969 -20.570  -9.515  1.00  0.00    -0.011 C 
HETATM   29  C   LIG     1     -18.965 -19.497  -8.717  1.00  0.00     0.009 C 
ENDBRANCH  27  28
ENDBRANCH  26  27
ENDBRANCH  24  26
ENDBRANCH  23  24
ENDBRANCH  19  23
ENDBRANCH   3  19
TORSDOF 14
ENDMDL
MODEL 6
REMARK VINA RESULT:      -7.6      2.592      6.034
REMARK  14 active torsions:
REMARK  status: ('A' for Active; 'I' for Inactive)
REMARK    1  A    between atoms: O_1  and  C_14 
REMARK    2  A    between atoms: O_1  and  C_21 
REMARK    3  A    between atoms: O_4  and  C_17 
REMARK    4  A    between atoms: O_4  and  C_22 
REMARK    5  A    between atoms: N_6  and  C_8 
REMARK       I    between atoms: N_6  and  C_12 
REMARK    6  A    between atoms: N_7  and  C_10 
REMARK    7  A    between atoms: C_8  and  C_9 
REMARK    8  A    between atoms: C_8  and  C_14 
REMARK    9  A    between atoms: C_9  and  C_11 
REMARK   10  A    between atoms: C_10  and  C_12 
REMARK   11  A    between atoms: C_10  and  C_13 
REMARK   12  A    between atoms: C_13  and  C_17 
REMARK   13  A    between atoms: C_21  and  C_23 
REMARK   14  A    between atoms: C_22  and  C_24 
ROOT
HETATM    1  O   LIG     1     -19.654 -16.117 -13.788  1.00  0.00    -0.271 OA
HETATM    2  N   LIG     1     -19.655 -15.543 -11.539  1.00  0.00    -0.345 N 
HETATM    3  C   LIG     1     -19.512 -15.285 -12.895  1.00  0.00     0.252 C 
HETATM    4  H   LIG     1     -19.501 -14.793 -10.870  1.00  0.00     0.163 HD
ENDROOT
BRANCH   2   5
HETATM    5  C   LIG     1     -19.995 -16.844 -11.012  1.00  0.00     0.188 C 
BRANCH   5   6
HETATM    6  C   LIG     1     -18.772 -17.773 -10.986  1.00  0.00     0.074 C 
BRANCH   6   7
HETATM    7  C   LIG     1     -19.027 -19.169 -11.506  1.00  0.00    -0.056 A 
HETATM    8  C   LIG     1     -19.275 -19.374 -12.864  1.00  0.00     0.007 A 
HETATM    9  C   LIG     1     -19.511 -20.663 -13.343  1.00  0.00     0.001 A 
HETATM   10  C   LIG     1     -19.499 -21.746 -12.465  1.00  0.00     0.000 A 
HETATM   11  C   LIG     1     -19.251 -21.542 -11.108  1.00  0.00     0.001 A 
HETATM   12  C   LIG     1     -19.015 -20.254 -10.629  1.00  0.00     0.007 A 
ENDBRANCH   6   7
ENDBRANCH   5   6
BRANCH   5  13
HETATM   13  C   LIG     1     -20.675 -16.760  -9.651  1.00  0.00     0.282 C 
HETATM   14  O   LIG     1     -20.057 -16.854  -8.596  1.00  0.00    -0.263 OA
BRANCH  13  15
HETATM   15  O   LIG     1     -22.023 -16.589  -9.760  1.00  0.00    -0.316 OA
BRANCH  15  16
HETATM   16  C   LIG     1     -22.565 -15.462  -9.063  1.00  0.00     0.205 C 
BRANCH  16  17
HETATM   17  C   LIG     1     -23.417 -15.956  -7.942  1.00  0.00    -0.011 C 
HETATM   18  C   LIG     1     -24.720 -16.228  -8.057  1.00  0.00     0.009 C 
ENDBRANCH  16  17
ENDBRANCH  15  16
ENDBRANCH  13  15
ENDBRANCH   5  13
ENDBRANCH   2   5
BRANCH   3  19
HETATM   19  C   LIG     1     -19.120 -13.835 -13.168  1.00  0.00     0.318 C 
BRANCH  19  20
HETATM   20  N   LIG     1     -19.027 -13.685 -14.621  1.00  0.00     0.092 N 
HETATM   21  H   LIG     1     -19.956 -13.764 -15.033  1.00  0.00     0.313 HD
HETATM   22  H   LIG     1     -18.697 -12.747 -14.846  1.00  0.00     0.313 HD
ENDBRANCH  19  20
BRANCH  19  23
HETATM   23  C   LIG     1     -20.186 -12.889 -12.614  1.00  0.00     0.156 C 
BRANCH  23  24
HETATM   24  C   LIG     1     -21.572 -13.359 -12.986  1.00  0.00     0.261 C 
HETATM   25  O   LIG     1     -22.346 -13.890 -12.198  1.00  0.00    -0.265 OA
BRANCH  24  26
HETATM   26  O   LIG     1     -21.826 -13.076 -14.294  1.00  0.00    -0.318 OA
BRANCH  26  27
HETATM   27  C   LIG     1     -22.915 -13.795 -14.882  1.00  0.00     0.205 C 
BRANCH  27  28
HETATM   28  C   LIG     1     -24.084 -12.876 -15.012  1.00  0.00    -0.011 C 
HETATM   29  C   LIG     1     -25.024 -12.992 -15.955  1.00  0.00     0.009 C 
ENDBRANCH  27  28
ENDBRANCH  26  27
ENDBRANCH  24  26
ENDBRANCH  23  24
ENDBRANCH  19  23
ENDBRANCH   3  19
TORSDOF 14
ENDMDL
MODEL 7
REMARK VINA RESULT:      -7.4      2.090      6.028
REMARK  14 active torsions:
REMARK  status: ('A' for Active; 'I' for Inactive)
REMARK    1  A    between atoms: O_1  and  C_14 
REMARK    2  A    between atoms: O_1  and  C_21 
REMARK    3  A    between atoms: O_4  and  C_17 
REMARK    4  A    between atoms: O_4  and  C_22 
REMARK    5  A    between atoms: N_6  and  C_8 
REMARK       I    between atoms: N_6  and  C_12 
REMARK    6  A    between atoms: N_7  and  C_10 
REMARK    7  A    between atoms: C_8  and  C_9 
REMARK    8  A    between atoms: C_8  and  C_14 
REMARK    9  A    between atoms: C_9  and  C_11 
REMARK   10  A    between atoms: C_10  and  C_12 
REMARK   11  A    between atoms: C_10  and  C_13 
REMARK   12  A    between atoms: C_13  and  C_17 
REMARK   13  A    between atoms: C_21  and  C_23 
REMARK   14  A    between atoms: C_22  and  C_24 
ROOT
HETATM    1  O   LIG     1     -22.651 -15.528 -11.259  1.00  0.00    -0.271 OA
HETATM    2  N   LIG     1     -20.343 -15.573 -11.015  1.00  0.00    -0.345 N 
HETATM    3  C   LIG     1     -21.553 -14.984 -11.355  1.00  0.00     0.252 C 
HETATM    4  H   LIG     1     -19.481 -15.050 -11.145  1.00  0.00     0.163 HD
ENDROOT
BRANCH   2   5
HETATM    5  C   LIG     1     -20.234 -16.917 -10.497  1.00  0.00     0.188 C 
BRANCH   5   6
HETATM    6  C   LIG     1     -18.930 -17.587 -10.955  1.00  0.00     0.074 C 
BRANCH   6   7
HETATM    7  C   LIG     1     -19.086 -19.013 -11.432  1.00  0.00    -0.056 A 
HETATM    8  C   LIG     1     -19.028 -20.066 -10.518  1.00  0.00     0.007 A 
HETATM    9  C   LIG     1     -19.171 -21.381 -10.959  1.00  0.00     0.001 A 
HETATM   10  C   LIG     1     -19.373 -21.645 -12.314  1.00  0.00     0.000 A 
HETATM   11  C   LIG     1     -19.431 -20.593 -13.228  1.00  0.00     0.001 A 
HETATM   12  C   LIG     1     -19.288 -19.277 -12.787  1.00  0.00     0.007 A 
ENDBRANCH   6   7
ENDBRANCH   5   6
BRANCH   5  13
HETATM   13  C   LIG     1     -20.401 -16.971  -8.983  1.00  0.00     0.282 C 
HETATM   14  O   LIG     1     -19.791 -16.226  -8.223  1.00  0.00    -0.263 OA
BRANCH  13  15
HETATM   15  O   LIG     1     -21.279 -17.940  -8.598  1.00  0.00    -0.316 OA
BRANCH  15  16
HETATM   16  C   LIG     1     -21.946 -17.714  -7.352  1.00  0.00     0.205 C 
BRANCH  16  17
HETATM   17  C   LIG     1     -23.214 -16.972  -7.615  1.00  0.00    -0.011 C 
HETATM   18  C   LIG     1     -24.300 -17.051  -6.839  1.00  0.00     0.009 C 
ENDBRANCH  16  17
ENDBRANCH  15  16
ENDBRANCH  13  15
ENDBRANCH   5  13
ENDBRANCH   2   5
BRANCH   3  19
HETATM   19  C   LIG     1     -21.373 -13.572 -11.905  1.00  0.00     0.318 C 
BRANCH  19  20
HETATM   20  N   LIG     1     -22.582 -13.254 -12.666  1.00  0.00     0.092 N 
HETATM   21  H   LIG     1     -22.996 -12.394 -12.307  1.00  0.00     0.313 HD
HETATM   22  H   LIG     1     -22.333 -13.064 -13.636  1.00  0.00     0.313 HD
ENDBRANCH  19  20
BRANCH  19  23
HETATM   23  C   LIG     1     -21.205 -12.578 -10.754  1.00  0.00     0.156 C 
BRANCH  23  24
HETATM   24  C   LIG     1     -22.468 -12.484  -9.932  1.00  0.00     0.261 C 
HETATM   25  O   LIG     1     -23.502 -11.962 -10.330  1.00  0.00    -0.265 OA
BRANCH  24  26
HETATM   26  O   LIG     1     -22.285 -13.087  -8.723  1.00  0.00    -0.318 OA
BRANCH  26  27
HETATM   27  C   LIG     1     -20.965 -12.991  -8.180  1.00  0.00     0.205 C 
BRANCH  27  28
HETATM   28  C   LIG     1     -21.067 -12.730  -6.714  1.00  0.00    -0.011 C 
HETATM   29  C   LIG     1     -20.458 -11.716  -6.091  1.00  0.00     0.009 C 
ENDBRANCH  27  28
ENDBRANCH  26  27
ENDBRANCH  24  26
ENDBRANCH  23  24
ENDBRANCH  19  23
ENDBRANCH   3  19
TORSDOF 14
ENDMDL
MODEL 8
REMARK VINA RESULT:      -7.4      2.805      6.056
REMARK  14 active torsions:
REMARK  status: ('A' for Active; 'I' for Inactive)
REMARK    1  A    between atoms: O_1  and  C_14 
REMARK    2  A    between atoms: O_1  and  C_21 
REMARK    3  A    between atoms: O_4  and  C_17 
REMARK    4  A    between atoms: O_4  and  C_22 
REMARK    5  A    between atoms: N_6  and  C_8 
REMARK       I    between atoms: N_6  and  C_12 
REMARK    6  A    between atoms: N_7  and  C_10 
REMARK    7  A    between atoms: C_8  and  C_9 
REMARK    8  A    between atoms: C_8  and  C_14 
REMARK    9  A    between atoms: C_9  and  C_11 
REMARK   10  A    between atoms: C_10  and  C_12 
REMARK   11  A    between atoms: C_10  and  C_13 
REMARK   12  A    between atoms: C_13  and  C_17 
REMARK   13  A    between atoms: C_21  and  C_23 
REMARK   14  A    between atoms: C_22  and  C_24 
ROOT
HETATM    1  O   LIG     1     -21.749 -13.139  -9.347  1.00  0.00    -0.271 OA
HETATM    2  N   LIG     1     -21.076 -14.538 -11.073  1.00  0.00    -0.345 N 
HETATM    3  C   LIG     1     -21.513 -13.335 -10.537  1.00  0.00     0.252 C 
HETATM    4  H   LIG     1     -20.922 -14.610 -12.075  1.00  0.00     0.163 HD
ENDROOT
BRANCH   2   5
HETATM    5  C   LIG     1     -20.842 -15.721 -10.277  1.00  0.00     0.188 C 
BRANCH   5   6
HETATM    6  C   LIG     1     -22.077 -16.634 -10.260  1.00  0.00     0.074 C 
BRANCH   6   7
HETATM    7  C   LIG     1     -22.698 -16.832  -8.896  1.00  0.00    -0.056 A 
HETATM    8  C   LIG     1     -24.006 -16.412  -8.657  1.00  0.00     0.007 A 
HETATM    9  C   LIG     1     -24.579 -16.594  -7.398  1.00  0.00     0.001 A 
HETATM   10  C   LIG     1     -23.843 -17.196  -6.378  1.00  0.00     0.000 A 
HETATM   11  C   LIG     1     -22.534 -17.618  -6.617  1.00  0.00     0.001 A 
HETATM   12  C   LIG     1     -21.962 -17.435  -7.876  1.00  0.00     0.007 A 
ENDBRANCH   6   7
ENDBRANCH   5   6
BRANCH   5  13
HETATM   13  C   LIG     1     -19.585 -16.469 -10.705  1.00  0.00     0.282 C 
HETATM   14  O   LIG     1     -19.116 -17.398 -10.056  1.00  0.00    -0.263 OA
BRANCH  13  15
HETATM   15  O   LIG     1     -19.059 -15.972 -11.860  1.00  0.00    -0.316 OA
BRANCH  15  16
HETATM   16  C   LIG     1     -19.119 -16.841 -12.995  1.00  0.00     0.205 C 
BRANCH  16  17
HETATM   17  C   LIG     1     -18.416 -16.188 -14.137  1.00  0.00    -0.011 C 
HETATM   18  C   LIG     1     -17.660 -15.091 -14.021  1.00  0.00     0.009 C 
ENDBRANCH  16  17
ENDBRANCH  15  16
ENDBRANCH  13  15
ENDBRANCH   5  13
ENDBRANCH   2   5
BRANCH   3  19
HETATM   19  C   LIG     1     -21.706 -12.263 -11.607  1.00  0.00     0.318 C 
BRANCH  19  20
HETATM   20  N   LIG     1     -20.709 -12.515 -12.648  1.00  0.00     0.092 N 
HETATM   21  H   LIG     1     -20.469 -13.505 -12.659  1.00  0.00     0.313 HD
HETATM   22  H   LIG     1     -21.113 -12.312 -13.562  1.00  0.00     0.313 HD
ENDBRANCH  19  20
BRANCH  19  23
HETATM   23  C   LIG     1     -23.113 -12.358 -12.198  1.00  0.00     0.156 C 
BRANCH  23  24
HETATM   24  C   LIG     1     -23.105 -13.139 -13.490  1.00  0.00     0.261 C 
HETATM   25  O   LIG     1     -22.853 -14.335 -13.561  1.00  0.00    -0.265 OA
BRANCH  24  26
HETATM   26  O   LIG     1     -23.445 -12.325 -14.530  1.00  0.00    -0.318 OA
BRANCH  26  27
HETATM   27  C   LIG     1     -24.379 -12.875 -15.463  1.00  0.00     0.205 C 
BRANCH  27  28
HETATM   28  C   LIG     1     -23.929 -12.540 -16.847  1.00  0.00    -0.011 C 
HETATM   29  C   LIG     1     -23.988 -13.390 -17.878  1.00  0.00     0.009 C 
ENDBRANCH  27  28
ENDBRANCH  26  27
ENDBRANCH  24  26
ENDBRANCH  23  24
ENDBRANCH  19  23
ENDBRANCH   3  19
TORSDOF 14
ENDMDL
MODEL 9
REMARK VINA RESULT:      -7.3      2.852      5.666
REMARK  14 active torsions:
REMARK  status: ('A' for Active; 'I' for Inactive)
REMARK    1  A    between atoms: O_1  and  C_14 
REMARK    2  A    between atoms: O_1  and  C_21 
REMARK    3  A    between atoms: O_4  and  C_17 
REMARK    4  A    between atoms: O_4  and  C_22 
REMARK    5  A    between atoms: N_6  and  C_8 
REMARK       I    between atoms: N_6  and  C_12 
REMARK    6  A    between atoms: N_7  and  C_10 
REMARK    7  A    between atoms: C_8  and  C_9 
REMARK    8  A    between atoms: C_8  and  C_14 
REMARK    9  A    between atoms: C_9  and  C_11 
REMARK   10  A    between atoms: C_10  and  C_12 
REMARK   11  A    between atoms: C_10  and  C_13 
REMARK   12  A    between atoms: C_13  and  C_17 
REMARK   13  A    between atoms: C_21  and  C_23 
REMARK   14  A    between atoms: C_22  and  C_24 
ROOT
HETATM    1  O   LIG     1     -20.530 -12.686 -11.910  1.00  0.00    -0.271 OA
HETATM    2  N   LIG     1     -21.777 -14.316 -10.825  1.00  0.00    -0.345 N 
HETATM    3  C   LIG     1     -21.576 -13.314 -11.764  1.00  0.00     0.252 C 
HETATM    4  H   LIG     1     -22.685 -14.769 -10.767  1.00  0.00     0.163 HD
ENDROOT
BRANCH   2   5
HETATM    5  C   LIG     1     -20.758 -14.746  -9.895  1.00  0.00     0.188 C 
BRANCH   5   6
HETATM    6  C   LIG     1     -21.191 -14.502  -8.442  1.00  0.00     0.074 C 
BRANCH   6   7
HETATM    7  C   LIG     1     -22.306 -15.400  -7.955  1.00  0.00    -0.056 A 
HETATM    8  C   LIG     1     -23.578 -15.302  -8.521  1.00  0.00     0.007 A 
HETATM    9  C   LIG     1     -24.607 -16.130  -8.072  1.00  0.00     0.001 A 
HETATM   10  C   LIG     1     -24.364 -17.056  -7.057  1.00  0.00     0.000 A 
HETATM   11  C   LIG     1     -23.093 -17.154  -6.492  1.00  0.00     0.001 A 
HETATM   12  C   LIG     1     -22.064 -16.326  -6.941  1.00  0.00     0.007 A 
ENDBRANCH   6   7
ENDBRANCH   5   6
BRANCH   5  13
HETATM   13  C   LIG     1     -20.331 -16.189 -10.129  1.00  0.00     0.282 C 
HETATM   14  O   LIG     1     -20.766 -16.866 -11.054  1.00  0.00    -0.263 OA
BRANCH  13  15
HETATM   15  O   LIG     1     -19.442 -16.620  -9.190  1.00  0.00    -0.316 OA
BRANCH  15  16
HETATM   16  C   LIG     1     -18.771 -17.849  -9.487  1.00  0.00     0.205 C 
BRANCH  16  17
HETATM   17  C   LIG     1     -19.421 -18.949  -8.718  1.00  0.00    -0.011 C 
HETATM   18  C   LIG     1     -19.012 -20.222  -8.743  1.00  0.00     0.009 C 
ENDBRANCH  16  17
ENDBRANCH  15  16
ENDBRANCH  13  15
ENDBRANCH   5  13
ENDBRANCH   2   5
BRANCH   3  19
HETATM   19  C   LIG     1     -22.828 -13.042 -12.595  1.00  0.00     0.318 C 
BRANCH  19  20
HETATM   20  N   LIG     1     -23.071 -11.600 -12.540  1.00  0.00     0.092 N 
HETATM   21  H   LIG     1     -22.188 -11.101 -12.640  1.00  0.00     0.313 HD
HETATM   22  H   LIG     1     -23.645 -11.322 -13.335  1.00  0.00     0.313 HD
ENDBRANCH  19  20
BRANCH  19  23
HETATM   23  C   LIG     1     -22.602 -13.478 -14.043  1.00  0.00     0.156 C 
BRANCH  23  24
HETATM   24  C   LIG     1     -23.060 -14.901 -14.257  1.00  0.00     0.261 C 
HETATM   25  O   LIG     1     -22.809 -15.820 -13.488  1.00  0.00    -0.265 OA
BRANCH  24  26
HETATM   26  O   LIG     1     -23.803 -14.986 -15.397  1.00  0.00    -0.318 OA
BRANCH  26  27
HETATM   27  C   LIG     1     -24.537 -13.808 -15.744  1.00  0.00     0.205 C 
BRANCH  27  28
HETATM   28  C   LIG     1     -24.380 -13.557 -17.207  1.00  0.00    -0.011 C 
HETATM   29  C   LIG     1     -23.967 -12.396 -17.727  1.00  0.00     0.009 C 
ENDBRANCH  27  28
ENDBRANCH  26  27
ENDBRANCH  24  26
ENDBRANCH  23  24
ENDBRANCH  19  23
ENDBRANCH   3  19
TORSDOF 14
ENDMDL
