MODEL 1
REMARK VINA RESULT:     -10.0      0.000      0.000
REMARK  4 active torsions:
REMARK  status: ('A' for Active; 'I' for Inactive)
REMARK    1  A    between atoms: O_5  and  C_10 
REMARK    2  A    between atoms: O_5  and  C_15 
REMARK    3  A    between atoms: C_9  and  C_16 
REMARK    4  A    between atoms: C_15  and  C_17 
ROOT
HETATM    1  O   LIG     1     -21.082 -14.518  -9.631  1.00  0.00    -0.275 OA
HETATM    2  O   LIG     1     -22.240 -12.567  -9.918  1.00  0.00    -0.260 OA
HETATM    3  C   LIG     1     -22.224 -16.457  -8.681  1.00  0.00     0.013 A 
HETATM    4  C   LIG     1     -21.075 -15.861  -9.204  1.00  0.00     0.093 A 
HETATM    5  C   LIG     1     -23.451 -15.654  -8.582  1.00  0.00     0.066 A 
HETATM    6  C   LIG     1     -19.803 -17.881  -8.928  1.00  0.00     0.071 A 
HETATM    7  C   LIG     1     -22.137 -17.796  -8.279  1.00  0.00     0.018 A 
HETATM    8  C   LIG     1     -19.870 -16.553  -9.332  1.00  0.00     0.075 A 
HETATM    9  C   LIG     1     -20.934 -18.503  -8.402  1.00  0.00     0.038 A 
HETATM   10  C   LIG     1     -23.427 -14.379  -8.996  1.00  0.00     0.099 A 
HETATM   11  C   LIG     1     -22.223 -13.737  -9.549  1.00  0.00     0.289 A 
ENDROOT
BRANCH   6  12
HETATM   12  O   LIG     1     -18.637 -18.574  -9.045  1.00  0.00    -0.347 OA
BRANCH  12  13
HETATM   13  C   LIG     1     -18.729 -19.996  -9.109  1.00  0.00     0.214 C 
BRANCH  13  14
HETATM   14  C   LIG     1     -18.998 -20.354 -10.537  1.00  0.00    -0.034 A 
HETATM   15  C   LIG     1     -19.040 -19.355 -11.506  1.00  0.00     0.009 A 
HETATM   16  C   LIG     1     -19.290 -19.690 -12.837  1.00  0.00     0.001 A 
HETATM   17  C   LIG     1     -19.498 -21.022 -13.193  1.00  0.00     0.000 A 
HETATM   18  C   LIG     1     -19.456 -22.020 -12.219  1.00  0.00     0.001 A 
HETATM   19  C   LIG     1     -19.205 -21.686 -10.889  1.00  0.00     0.009 A 
ENDBRANCH  13  14
ENDBRANCH  12  13
ENDBRANCH   6  12
BRANCH   5  20
HETATM   20  C   LIG     1     -24.702 -16.265  -8.024  1.00  0.00     0.418 C 
HETATM   21  F   LIG     1     -24.538 -16.605  -6.731  1.00  0.00    -0.166 F 
HETATM   22  F   LIG     1     -25.037 -17.378  -8.706  1.00  0.00    -0.166 F 
HETATM   23  F   LIG     1     -25.736 -15.405  -8.100  1.00  0.00    -0.166 F 
ENDBRANCH   5  20
TORSDOF 4
ENDMDL
