MODEL 1
REMARK VINA RESULT:      -9.3      0.000      0.000
REMARK  1 active torsions:
REMARK  status: ('A' for Active; 'I' for Inactive)
REMARK    1  A    between atoms: C_10  and  C_15 
ROOT
HETATM    1 CL   LIG     1     -24.607 -11.046 -10.976  1.00  0.00    -0.084 Cl
HETATM    2  N   LIG     1     -20.297 -15.047 -11.774  1.00  0.00    -0.300 N 
HETATM    3  N   LIG     1     -20.386 -13.967 -14.630  1.00  0.00    -0.282 NA
HETATM    4  N   LIG     1     -18.890 -16.739 -11.361  1.00  0.00    -0.245 NA
HETATM    5  C   LIG     1     -21.378 -14.146 -11.635  1.00  0.00     0.053 A 
HETATM    6  C   LIG     1     -19.311 -14.993 -12.738  1.00  0.00     0.056 A 
HETATM    7  C   LIG     1     -21.906 -13.441 -12.735  1.00  0.00     0.022 A 
HETATM    8  C   LIG     1     -19.236 -13.912 -13.747  1.00  0.00     0.208 C 
HETATM    9  C   LIG     1     -21.570 -13.753 -14.164  1.00  0.00     0.077 C 
HETATM   10  C   LIG     1     -19.961 -16.099 -10.950  1.00  0.00     0.107 A 
HETATM   11  C   LIG     1     -18.480 -16.057 -12.473  1.00  0.00     0.145 A 
HETATM   12  C   LIG     1     -21.907 -13.928 -10.352  1.00  0.00     0.032 A 
HETATM   13  C   LIG     1     -22.896 -12.469 -12.510  1.00  0.00     0.040 A 
HETATM   14  C   LIG     1     -20.788 -16.611  -9.832  1.00  0.00     0.091 C 
HETATM   15  C   LIG     1     -22.908 -12.976 -10.153  1.00  0.00     0.026 A 
HETATM   16  C   LIG     1     -23.391 -12.237 -11.227  1.00  0.00     0.035 A 
ENDROOT
BRANCH   9  17
HETATM   17  C   LIG     1     -22.690 -13.858 -15.145  1.00  0.00     0.032 A 
HETATM   18  C   LIG     1     -23.599 -14.902 -15.042  1.00  0.00     0.129 A 
HETATM   19  F   LIG     1     -23.487 -15.822 -14.073  1.00  0.00    -0.205 F 
HETATM   20  C   LIG     1     -24.645 -14.996 -15.959  1.00  0.00     0.043 A 
HETATM   21  C   LIG     1     -24.774 -14.046 -16.971  1.00  0.00     0.003 A 
HETATM   22  C   LIG     1     -23.855 -13.000 -17.066  1.00  0.00     0.001 A 
HETATM   23  C   LIG     1     -22.809 -12.906 -16.149  1.00  0.00     0.017 A 
ENDBRANCH   9  17
TORSDOF 1
ENDMDL
