MODEL 1
REMARK VINA RESULT:      -9.4      0.000      0.000
REMARK  1 active torsions:
REMARK  status: ('A' for Active; 'I' for Inactive)
REMARK    1  A    between atoms: C_7  and  C_21 
ROOT
HETATM    1  O   LIG     1     -21.308 -13.627  -7.038  1.00  0.00    -0.291 OA
HETATM    2  C   LIG     1     -23.677 -18.749 -12.190  1.00  0.00     0.000 C 
HETATM    3  C   LIG     1     -22.634 -19.758 -12.715  1.00  0.00     0.006 C 
HETATM    4  C   LIG     1     -23.453 -18.369 -10.723  1.00  0.00     0.001 C 
HETATM    5  C   LIG     1     -22.037 -17.728 -10.579  1.00  0.00     0.004 C 
HETATM    6  C   LIG     1     -21.722 -17.260  -9.106  1.00  0.00     0.016 C 
HETATM    7  C   LIG     1     -23.177 -19.956 -14.148  1.00  0.00     0.058 C 
HETATM    8  C   LIG     1     -21.255 -19.089 -12.637  1.00  0.00     0.000 C 
HETATM    9  C   LIG     1     -20.932 -18.622 -11.206  1.00  0.00     0.000 C 
HETATM   10  C   LIG     1     -25.007 -19.371 -12.600  1.00  0.00     0.000 C 
HETATM   11  C   LIG     1     -24.525 -17.390 -10.227  1.00  0.00     0.004 C 
HETATM   12  C   LIG     1     -24.709 -20.005 -13.970  1.00  0.00     0.007 C 
HETATM   13  C   LIG     1     -22.894 -16.425  -8.573  1.00  0.00    -0.042 C 
HETATM   14  C   LIG     1     -22.610 -21.100 -11.938  1.00  0.00     0.000 C 
HETATM   15  C   LIG     1     -24.279 -16.990  -8.779  1.00  0.00     0.022 C 
HETATM   16  C   LIG     1     -20.425 -16.402  -9.131  1.00  0.00     0.012 C 
HETATM   17  C   LIG     1     -21.512 -18.459  -8.152  1.00  0.00     0.004 C 
HETATM   18  C   LIG     1     -20.209 -15.585  -7.868  1.00  0.00     0.070 C 
HETATM   19  C   LIG     1     -22.749 -15.255  -7.927  1.00  0.00     0.029 C 
HETATM   20  C   LIG     1     -21.410 -14.719  -7.592  1.00  0.00     0.172 C 
ENDROOT
BRANCH   7  21
HETATM   21  C   LIG     1     -22.645 -21.166 -14.850  1.00  0.00     0.151 C 
HETATM   22  O   LIG     1     -21.440 -21.325 -15.038  1.00  0.00    -0.296 OA
HETATM   23  C   LIG     1     -23.656 -22.179 -15.313  1.00  0.00     0.072 C 
ENDBRANCH   7  21
TORSDOF 1
ENDMDL
