MODEL 1
REMARK VINA RESULT:      -9.8      0.000      0.000
REMARK  6 active torsions:
REMARK  status: ('A' for Active; 'I' for Inactive)
REMARK    1  A    between atoms: S_2  and  N_9 
REMARK    2  A    between atoms: S_2  and  C_15 
REMARK    3  A    between atoms: O_6  and  C_19 
REMARK    4  A    between atoms: N_10  and  C_18 
REMARK       I    between atoms: N_10  and  C_21 
REMARK    5  A    between atoms: C_21  and  C_22 
REMARK    6  A    between atoms: C_23  and  C_26 
ROOT
HETATM    1  C   LIG     1     -22.449 -13.995 -11.834  1.00  0.00     0.077 A 
HETATM    2  C   LIG     1     -22.338 -15.323 -12.213  1.00  0.00     0.057 A 
HETATM    3  C   LIG     1     -22.752 -13.004 -12.755  1.00  0.00     0.028 A 
HETATM    4  C   LIG     1     -22.536 -15.670 -13.550  1.00  0.00     0.070 A 
HETATM    5  C   LIG     1     -22.842 -14.686 -14.489  1.00  0.00     0.095 A 
HETATM    6  C   LIG     1     -22.950 -13.352 -14.092  1.00  0.00     0.040 A 
ENDROOT
BRANCH   4   7
HETATM    7  N   LIG     1     -22.425 -17.009 -13.933  1.00  0.00    -0.319 N 
HETATM    8  C   LIG     1     -23.455 -17.924 -14.228  1.00  0.00     0.280 C 
HETATM    9  O   LIG     1     -24.652 -17.647 -14.183  1.00  0.00    -0.265 OA
HETATM   10  H   LIG     1     -21.473 -17.359 -14.005  1.00  0.00     0.169 HD
BRANCH   8  11
HETATM   11  C   LIG     1     -23.004 -19.285 -14.563  1.00  0.00     0.144 A 
HETATM   12  O   LIG     1     -23.951 -20.129 -14.983  1.00  0.00    -0.304 OA
HETATM   13  C   LIG     1     -23.294 -21.293 -15.223  1.00  0.00     0.088 A 
HETATM   14  C   LIG     1     -21.953 -21.158 -14.951  1.00  0.00     0.041 A 
HETATM   15  C   LIG     1     -21.775 -19.823 -14.514  1.00  0.00     0.046 A 
BRANCH  13  16
HETATM   16  C   LIG     1     -24.112 -22.375 -15.694  1.00  0.00     0.019 A 
HETATM   17  C   LIG     1     -25.075 -22.203 -16.698  1.00  0.00     0.047 A 
HETATM   18 CL   LIG     1     -25.344 -20.664 -17.440  1.00  0.00    -0.083 Cl
HETATM   19  C   LIG     1     -25.848 -23.281 -17.126  1.00  0.00     0.025 A 
HETATM   20  C   LIG     1     -25.666 -24.541 -16.555  1.00  0.00     0.002 A 
HETATM   21  C   LIG     1     -24.710 -24.722 -15.555  1.00  0.00     0.001 A 
HETATM   22  C   LIG     1     -23.936 -23.644 -15.127  1.00  0.00     0.016 A 
ENDBRANCH  13  16
ENDBRANCH   8  11
ENDBRANCH   4   7
BRANCH   5  23
HETATM   23  O   LIG     1     -23.039 -15.004 -15.799  1.00  0.00    -0.354 OA
HETATM   24  C   LIG     1     -24.252 -14.556 -16.400  1.00  0.00     0.210 C 
ENDBRANCH   5  23
BRANCH   1  25
HETATM   25  S   LIG     1     -22.199 -13.554 -10.144  1.00  0.00     0.243 S 
HETATM   26  O   LIG     1     -20.887 -12.951 -10.033  1.00  0.00    -0.206 OA
HETATM   27  O   LIG     1     -23.381 -12.856  -9.685  1.00  0.00    -0.206 OA
BRANCH  25  28
HETATM   28  N   LIG     1     -22.161 -15.111  -9.431  1.00  0.00    -0.202 NA
HETATM   29  C   LIG     1     -20.880 -15.478  -8.759  1.00  0.00     0.134 C 
HETATM   30  C   LIG     1     -20.921 -16.959  -8.407  1.00  0.00     0.183 C 
HETATM   31  O   LIG     1     -22.042 -17.239  -7.566  1.00  0.00    -0.389 OA
HETATM   32  C   LIG     1     -23.270 -16.935  -8.230  1.00  0.00     0.183 C 
HETATM   33  C   LIG     1     -23.334 -15.454  -8.574  1.00  0.00     0.134 C 
ENDBRANCH  25  28
ENDBRANCH   1  25
TORSDOF 6
ENDMDL
MODEL 2
REMARK VINA RESULT:      -9.4      2.426      3.023
REMARK  6 active torsions:
REMARK  status: ('A' for Active; 'I' for Inactive)
REMARK    1  A    between atoms: S_2  and  N_9 
REMARK    2  A    between atoms: S_2  and  C_15 
REMARK    3  A    between atoms: O_6  and  C_19 
REMARK    4  A    between atoms: N_10  and  C_18 
REMARK       I    between atoms: N_10  and  C_21 
REMARK    5  A    between atoms: C_21  and  C_22 
REMARK    6  A    between atoms: C_23  and  C_26 
ROOT
HETATM    1  C   LIG     1     -21.168 -13.766 -10.725  1.00  0.00     0.077 A 
HETATM    2  C   LIG     1     -21.221 -15.069 -11.193  1.00  0.00     0.057 A 
HETATM    3  C   LIG     1     -20.419 -12.797 -11.373  1.00  0.00     0.028 A 
HETATM    4  C   LIG     1     -20.506 -15.413 -12.341  1.00  0.00     0.070 A 
HETATM    5  C   LIG     1     -19.748 -14.448 -13.005  1.00  0.00     0.095 A 
HETATM    6  C   LIG     1     -19.704 -13.140 -12.521  1.00  0.00     0.040 A 
ENDROOT
BRANCH   4   7
HETATM    7  N   LIG     1     -20.559 -16.725 -12.814  1.00  0.00    -0.319 N 
HETATM    8  C   LIG     1     -19.604 -17.750 -12.662  1.00  0.00     0.280 C 
HETATM    9  O   LIG     1     -18.541 -17.613 -12.061  1.00  0.00    -0.265 OA
HETATM   10  H   LIG     1     -21.400 -16.963 -13.335  1.00  0.00     0.169 HD
BRANCH   8  11
HETATM   11  C   LIG     1     -19.944 -19.023 -13.322  1.00  0.00     0.144 A 
HETATM   12  O   LIG     1     -21.193 -19.126 -13.786  1.00  0.00    -0.304 OA
HETATM   13  C   LIG     1     -21.253 -20.367 -14.337  1.00  0.00     0.088 A 
HETATM   14  C   LIG     1     -20.046 -21.013 -14.209  1.00  0.00     0.041 A 
HETATM   15  C   LIG     1     -19.189 -20.112 -13.535  1.00  0.00     0.046 A 
BRANCH  13  16
HETATM   16  C   LIG     1     -22.519 -20.721 -14.916  1.00  0.00     0.019 A 
HETATM   17  C   LIG     1     -23.445 -19.757 -15.335  1.00  0.00     0.047 A 
HETATM   18 CL   LIG     1     -23.125 -18.065 -15.181  1.00  0.00    -0.083 Cl
HETATM   19  C   LIG     1     -24.664 -20.145 -15.892  1.00  0.00     0.025 A 
HETATM   20  C   LIG     1     -24.966 -21.500 -16.034  1.00  0.00     0.002 A 
HETATM   21  C   LIG     1     -24.049 -22.466 -15.620  1.00  0.00     0.001 A 
HETATM   22  C   LIG     1     -22.830 -22.079 -15.063  1.00  0.00     0.016 A 
ENDBRANCH  13  16
ENDBRANCH   8  11
ENDBRANCH   4   7
BRANCH   5  23
HETATM   23  O   LIG     1     -19.042 -14.762 -14.127  1.00  0.00    -0.354 OA
HETATM   24  C   LIG     1     -17.623 -14.836 -14.001  1.00  0.00     0.210 C 
ENDBRANCH   5  23
BRANCH   1  25
HETATM   25  S   LIG     1     -22.072 -13.332  -9.273  1.00  0.00     0.243 S 
HETATM   26  O   LIG     1     -21.162 -12.658  -8.370  1.00  0.00    -0.206 OA
HETATM   27  O   LIG     1     -23.309 -12.706  -9.688  1.00  0.00    -0.206 OA
BRANCH  25  28
HETATM   28  N   LIG     1     -22.418 -14.892  -8.657  1.00  0.00    -0.202 NA
HETATM   29  C   LIG     1     -21.724 -15.249  -7.385  1.00  0.00     0.134 C 
HETATM   30  C   LIG     1     -21.936 -16.732  -7.114  1.00  0.00     0.183 C 
HETATM   31  O   LIG     1     -23.332 -17.029  -7.039  1.00  0.00    -0.389 OA
HETATM   32  C   LIG     1     -23.986 -16.735  -8.275  1.00  0.00     0.183 C 
HETATM   33  C   LIG     1     -23.865 -15.253  -8.598  1.00  0.00     0.134 C 
ENDBRANCH  25  28
ENDBRANCH   1  25
TORSDOF 6
ENDMDL
MODEL 3
REMARK VINA RESULT:      -8.9      1.948      2.650
REMARK  6 active torsions:
REMARK  status: ('A' for Active; 'I' for Inactive)
REMARK    1  A    between atoms: S_2  and  N_9 
REMARK    2  A    between atoms: S_2  and  C_15 
REMARK    3  A    between atoms: O_6  and  C_19 
REMARK    4  A    between atoms: N_10  and  C_18 
REMARK       I    between atoms: N_10  and  C_21 
REMARK    5  A    between atoms: C_21  and  C_22 
REMARK    6  A    between atoms: C_23  and  C_26 
ROOT
HETATM    1  C   LIG     1     -21.563 -14.779 -10.256  1.00  0.00     0.077 A 
HETATM    2  C   LIG     1     -22.238 -15.697 -11.044  1.00  0.00     0.057 A 
HETATM    3  C   LIG     1     -21.053 -13.606 -10.792  1.00  0.00     0.028 A 
HETATM    4  C   LIG     1     -22.410 -15.436 -12.403  1.00  0.00     0.070 A 
HETATM    5  C   LIG     1     -21.903 -14.261 -12.957  1.00  0.00     0.095 A 
HETATM    6  C   LIG     1     -21.224 -13.345 -12.151  1.00  0.00     0.040 A 
ENDROOT
BRANCH   4   7
HETATM    7  N   LIG     1     -23.091 -16.361 -13.198  1.00  0.00    -0.319 N 
HETATM    8  C   LIG     1     -22.554 -17.347 -14.049  1.00  0.00     0.280 C 
HETATM    9  O   LIG     1     -21.350 -17.531 -14.212  1.00  0.00    -0.265 OA
HETATM   10  H   LIG     1     -24.106 -16.307 -13.149  1.00  0.00     0.169 HD
BRANCH   8  11
HETATM   11  C   LIG     1     -23.549 -18.143 -14.788  1.00  0.00     0.144 A 
HETATM   12  O   LIG     1     -23.439 -19.470 -14.673  1.00  0.00    -0.304 OA
HETATM   13  C   LIG     1     -24.451 -19.967 -15.432  1.00  0.00     0.088 A 
HETATM   14  C   LIG     1     -25.173 -18.946 -16.004  1.00  0.00     0.041 A 
HETATM   15  C   LIG     1     -24.565 -17.744 -15.569  1.00  0.00     0.046 A 
BRANCH  13  16
HETATM   16  C   LIG     1     -24.545 -21.399 -15.469  1.00  0.00     0.019 A 
HETATM   17  C   LIG     1     -23.445 -22.228 -15.211  1.00  0.00     0.047 A 
HETATM   18 CL   LIG     1     -21.890 -21.576 -14.828  1.00  0.00    -0.083 Cl
HETATM   19  C   LIG     1     -23.581 -23.615 -15.258  1.00  0.00     0.025 A 
HETATM   20  C   LIG     1     -24.817 -24.185 -15.564  1.00  0.00     0.002 A 
HETATM   21  C   LIG     1     -25.917 -23.368 -15.822  1.00  0.00     0.001 A 
HETATM   22  C   LIG     1     -25.782 -21.980 -15.775  1.00  0.00     0.016 A 
ENDBRANCH  13  16
ENDBRANCH   8  11
ENDBRANCH   4   7
BRANCH   5  23
HETATM   23  O   LIG     1     -22.059 -13.987 -14.283  1.00  0.00    -0.354 OA
HETATM   24  C   LIG     1     -22.970 -12.944 -14.627  1.00  0.00     0.210 C 
ENDBRANCH   5  23
BRANCH   1  25
HETATM   25  S   LIG     1     -21.346 -15.109  -8.536  1.00  0.00     0.243 S 
HETATM   26  O   LIG     1     -20.535 -14.045  -7.981  1.00  0.00    -0.206 OA
HETATM   27  O   LIG     1     -22.642 -15.429  -7.976  1.00  0.00    -0.206 OA
BRANCH  25  28
HETATM   28  N   LIG     1     -20.409 -16.540  -8.622  1.00  0.00    -0.202 NA
HETATM   29  C   LIG     1     -21.169 -17.815  -8.469  1.00  0.00     0.134 C 
HETATM   30  C   LIG     1     -20.176 -18.959  -8.316  1.00  0.00     0.183 C 
HETATM   31  O   LIG     1     -19.302 -19.013  -9.446  1.00  0.00    -0.389 OA
HETATM   32  C   LIG     1     -18.538 -17.812  -9.561  1.00  0.00     0.183 C 
HETATM   33  C   LIG     1     -19.457 -16.617  -9.769  1.00  0.00     0.134 C 
ENDBRANCH  25  28
ENDBRANCH   1  25
TORSDOF 6
ENDMDL
MODEL 4
REMARK VINA RESULT:      -8.8      2.594      4.044
REMARK  6 active torsions:
REMARK  status: ('A' for Active; 'I' for Inactive)
REMARK    1  A    between atoms: S_2  and  N_9 
REMARK    2  A    between atoms: S_2  and  C_15 
REMARK    3  A    between atoms: O_6  and  C_19 
REMARK    4  A    between atoms: N_10  and  C_18 
REMARK       I    between atoms: N_10  and  C_21 
REMARK    5  A    between atoms: C_21  and  C_22 
REMARK    6  A    between atoms: C_23  and  C_26 
ROOT
HETATM    1  C   LIG     1     -19.509 -15.376 -13.345  1.00  0.00     0.077 A 
HETATM    2  C   LIG     1     -20.566 -16.004 -13.983  1.00  0.00     0.057 A 
HETATM    3  C   LIG     1     -18.560 -16.099 -12.639  1.00  0.00     0.028 A 
HETATM    4  C   LIG     1     -20.678 -17.393 -13.914  1.00  0.00     0.070 A 
HETATM    5  C   LIG     1     -19.731 -18.134 -13.208  1.00  0.00     0.095 A 
HETATM    6  C   LIG     1     -18.672 -17.487 -12.569  1.00  0.00     0.040 A 
ENDROOT
BRANCH   4   7
HETATM    7  N   LIG     1     -21.743 -18.027 -14.557  1.00  0.00    -0.319 N 
HETATM    8  C   LIG     1     -23.123 -17.778 -14.419  1.00  0.00     0.280 C 
HETATM    9  O   LIG     1     -23.594 -16.923 -13.672  1.00  0.00    -0.265 OA
HETATM   10  H   LIG     1     -21.478 -18.764 -15.206  1.00  0.00     0.169 HD
BRANCH   8  11
HETATM   11  C   LIG     1     -23.999 -18.656 -15.213  1.00  0.00     0.144 A 
HETATM   12  O   LIG     1     -23.851 -19.969 -15.010  1.00  0.00    -0.304 OA
HETATM   13  C   LIG     1     -24.752 -20.551 -15.844  1.00  0.00     0.088 A 
HETATM   14  C   LIG     1     -25.446 -19.595 -16.549  1.00  0.00     0.041 A 
HETATM   15  C   LIG     1     -24.936 -18.346 -16.122  1.00  0.00     0.046 A 
BRANCH  13  16
HETATM   16  C   LIG     1     -24.787 -21.985 -15.808  1.00  0.00     0.019 A 
HETATM   17  C   LIG     1     -23.714 -22.747 -15.326  1.00  0.00     0.047 A 
HETATM   18 CL   LIG     1     -22.267 -22.004 -14.739  1.00  0.00    -0.083 Cl
HETATM   19  C   LIG     1     -23.789 -24.140 -15.309  1.00  0.00     0.025 A 
HETATM   20  C   LIG     1     -24.937 -24.782 -15.774  1.00  0.00     0.002 A 
HETATM   21  C   LIG     1     -26.009 -24.032 -16.255  1.00  0.00     0.001 A 
HETATM   22  C   LIG     1     -25.935 -22.639 -16.272  1.00  0.00     0.016 A 
ENDBRANCH  13  16
ENDBRANCH   8  11
ENDBRANCH   4   7
BRANCH   5  23
HETATM   23  O   LIG     1     -19.822 -19.492 -13.127  1.00  0.00    -0.354 OA
HETATM   24  C   LIG     1     -19.149 -20.123 -12.039  1.00  0.00     0.210 C 
ENDBRANCH   5  23
BRANCH   1  25
HETATM   25  S   LIG     1     -19.368 -13.619 -13.432  1.00  0.00     0.243 S 
HETATM   26  O   LIG     1     -18.083 -13.251 -12.873  1.00  0.00    -0.206 OA
HETATM   27  O   LIG     1     -19.746 -13.207 -14.767  1.00  0.00    -0.206 OA
BRANCH  25  28
HETATM   28  N   LIG     1     -20.604 -13.164 -12.339  1.00  0.00    -0.202 NA
HETATM   29  C   LIG     1     -21.966 -13.022 -12.932  1.00  0.00     0.134 C 
HETATM   30  C   LIG     1     -22.883 -12.378 -11.902  1.00  0.00     0.183 C 
HETATM   31  O   LIG     1     -22.922 -13.166 -10.710  1.00  0.00    -0.389 OA
HETATM   32  C   LIG     1     -21.627 -13.259 -10.114  1.00  0.00     0.183 C 
HETATM   33  C   LIG     1     -20.654 -13.942 -11.065  1.00  0.00     0.134 C 
ENDBRANCH  25  28
ENDBRANCH   1  25
TORSDOF 6
ENDMDL
MODEL 5
REMARK VINA RESULT:      -8.6      1.745      2.247
REMARK  6 active torsions:
REMARK  status: ('A' for Active; 'I' for Inactive)
REMARK    1  A    between atoms: S_2  and  N_9 
REMARK    2  A    between atoms: S_2  and  C_15 
REMARK    3  A    between atoms: O_6  and  C_19 
REMARK    4  A    between atoms: N_10  and  C_18 
REMARK       I    between atoms: N_10  and  C_21 
REMARK    5  A    between atoms: C_21  and  C_22 
REMARK    6  A    between atoms: C_23  and  C_26 
ROOT
HETATM    1  C   LIG     1     -21.331 -14.721 -10.953  1.00  0.00     0.077 A 
HETATM    2  C   LIG     1     -22.040 -15.694 -11.638  1.00  0.00     0.057 A 
HETATM    3  C   LIG     1     -20.999 -13.515 -11.550  1.00  0.00     0.028 A 
HETATM    4  C   LIG     1     -22.428 -15.456 -12.956  1.00  0.00     0.070 A 
HETATM    5  C   LIG     1     -22.102 -14.247 -13.571  1.00  0.00     0.095 A 
HETATM    6  C   LIG     1     -21.388 -13.276 -12.868  1.00  0.00     0.040 A 
ENDROOT
BRANCH   4   7
HETATM    7  N   LIG     1     -23.142 -16.436 -13.648  1.00  0.00    -0.319 N 
HETATM    8  C   LIG     1     -22.643 -17.547 -14.356  1.00  0.00     0.280 C 
HETATM    9  O   LIG     1     -21.448 -17.812 -14.463  1.00  0.00    -0.265 OA
HETATM   10  H   LIG     1     -24.153 -16.324 -13.634  1.00  0.00     0.169 HD
BRANCH   8  11
HETATM   11  C   LIG     1     -23.665 -18.377 -15.017  1.00  0.00     0.144 A 
HETATM   12  O   LIG     1     -23.508 -19.700 -14.904  1.00  0.00    -0.304 OA
HETATM   13  C   LIG     1     -24.557 -20.231 -15.585  1.00  0.00     0.088 A 
HETATM   14  C   LIG     1     -25.349 -19.235 -16.108  1.00  0.00     0.041 A 
HETATM   15  C   LIG     1     -24.746 -18.013 -15.724  1.00  0.00     0.046 A 
BRANCH  13  16
HETATM   16  C   LIG     1     -24.611 -21.665 -15.609  1.00  0.00     0.019 A 
HETATM   17  C   LIG     1     -23.495 -22.461 -15.318  1.00  0.00     0.047 A 
HETATM   18 CL   LIG     1     -21.966 -21.762 -14.910  1.00  0.00    -0.083 Cl
HETATM   19  C   LIG     1     -23.591 -23.852 -15.353  1.00  0.00     0.025 A 
HETATM   20  C   LIG     1     -24.804 -24.458 -15.679  1.00  0.00     0.002 A 
HETATM   21  C   LIG     1     -25.921 -23.675 -15.969  1.00  0.00     0.001 A 
HETATM   22  C   LIG     1     -25.825 -22.283 -15.934  1.00  0.00     0.016 A 
ENDBRANCH  13  16
ENDBRANCH   8  11
ENDBRANCH   4   7
BRANCH   5  23
HETATM   23  O   LIG     1     -22.472 -13.994 -14.858  1.00  0.00    -0.354 OA
HETATM   24  C   LIG     1     -21.484 -13.426 -15.716  1.00  0.00     0.210 C 
ENDBRANCH   5  23
BRANCH   1  25
HETATM   25  S   LIG     1     -20.839 -15.022  -9.284  1.00  0.00     0.243 S 
HETATM   26  O   LIG     1     -19.722 -15.944  -9.312  1.00  0.00    -0.206 OA
HETATM   27  O   LIG     1     -20.735 -13.745  -8.612  1.00  0.00    -0.206 OA
BRANCH  25  28
HETATM   28  N   LIG     1     -22.227 -15.842  -8.707  1.00  0.00    -0.202 NA
HETATM   29  C   LIG     1     -22.001 -16.743  -7.539  1.00  0.00     0.134 C 
HETATM   30  C   LIG     1     -23.256 -17.574  -7.313  1.00  0.00     0.183 C 
HETATM   31  O   LIG     1     -24.383 -16.723  -7.096  1.00  0.00    -0.389 OA
HETATM   32  C   LIG     1     -24.630 -15.898  -8.236  1.00  0.00     0.183 C 
HETATM   33  C   LIG     1     -23.436 -14.992  -8.502  1.00  0.00     0.134 C 
ENDBRANCH  25  28
ENDBRANCH   1  25
TORSDOF 6
ENDMDL
MODEL 6
REMARK VINA RESULT:      -8.4      3.989      8.177
REMARK  6 active torsions:
REMARK  status: ('A' for Active; 'I' for Inactive)
REMARK    1  A    between atoms: S_2  and  N_9 
REMARK    2  A    between atoms: S_2  and  C_15 
REMARK    3  A    between atoms: O_6  and  C_19 
REMARK    4  A    between atoms: N_10  and  C_18 
REMARK       I    between atoms: N_10  and  C_21 
REMARK    5  A    between atoms: C_21  and  C_22 
REMARK    6  A    between atoms: C_23  and  C_26 
ROOT
HETATM    1  C   LIG     1     -22.540 -13.656 -15.252  1.00  0.00     0.077 A 
HETATM    2  C   LIG     1     -22.565 -13.770 -13.872  1.00  0.00     0.057 A 
HETATM    3  C   LIG     1     -21.361 -13.396 -15.933  1.00  0.00     0.028 A 
HETATM    4  C   LIG     1     -21.380 -13.621 -13.152  1.00  0.00     0.070 A 
HETATM    5  C   LIG     1     -20.185 -13.360 -13.823  1.00  0.00     0.095 A 
HETATM    6  C   LIG     1     -20.176 -13.247 -15.214  1.00  0.00     0.040 A 
ENDROOT
BRANCH   4   7
HETATM    7  N   LIG     1     -21.404 -13.736 -11.761  1.00  0.00    -0.319 N 
HETATM    8  C   LIG     1     -21.306 -12.714 -10.795  1.00  0.00     0.280 C 
HETATM    9  O   LIG     1     -21.178 -11.523 -11.069  1.00  0.00    -0.265 OA
HETATM   10  H   LIG     1     -21.505 -14.685 -11.407  1.00  0.00     0.169 HD
BRANCH   8  11
HETATM   11  C   LIG     1     -21.323 -13.173  -9.396  1.00  0.00     0.144 A 
HETATM   12  O   LIG     1     -21.711 -14.437  -9.199  1.00  0.00    -0.304 OA
HETATM   13  C   LIG     1     -21.643 -14.613  -7.854  1.00  0.00     0.088 A 
HETATM   14  C   LIG     1     -21.215 -13.461  -7.236  1.00  0.00     0.041 A 
HETATM   15  C   LIG     1     -21.008 -12.516  -8.269  1.00  0.00     0.046 A 
BRANCH  13  16
HETATM   16  C   LIG     1     -22.017 -15.917  -7.384  1.00  0.00     0.019 A 
HETATM   17  C   LIG     1     -21.292 -17.069  -7.720  1.00  0.00     0.047 A 
HETATM   18 CL   LIG     1     -19.891 -16.995  -8.731  1.00  0.00    -0.083 Cl
HETATM   19  C   LIG     1     -21.690 -18.317  -7.243  1.00  0.00     0.025 A 
HETATM   20  C   LIG     1     -22.816 -18.424  -6.425  1.00  0.00     0.002 A 
HETATM   21  C   LIG     1     -23.542 -17.284  -6.085  1.00  0.00     0.001 A 
HETATM   22  C   LIG     1     -23.144 -16.035  -6.563  1.00  0.00     0.016 A 
ENDBRANCH  13  16
ENDBRANCH   8  11
ENDBRANCH   4   7
BRANCH   5  23
HETATM   23  O   LIG     1     -19.016 -13.210 -13.139  1.00  0.00    -0.354 OA
HETATM   24  C   LIG     1     -18.019 -14.212 -13.332  1.00  0.00     0.210 C 
ENDBRANCH   5  23
BRANCH   1  25
HETATM   25  S   LIG     1     -24.040 -13.844 -16.163  1.00  0.00     0.243 S 
HETATM   26  O   LIG     1     -24.958 -12.815 -15.720  1.00  0.00    -0.206 OA
HETATM   27  O   LIG     1     -23.697 -13.985 -17.562  1.00  0.00    -0.206 OA
BRANCH  25  28
HETATM   28  N   LIG     1     -24.566 -15.359 -15.564  1.00  0.00    -0.202 NA
HETATM   29  C   LIG     1     -25.930 -15.782 -15.997  1.00  0.00     0.134 C 
HETATM   30  C   LIG     1     -26.341 -17.006 -15.189  1.00  0.00     0.183 C 
HETATM   31  O   LIG     1     -25.393 -18.061 -15.369  1.00  0.00    -0.389 OA
HETATM   32  C   LIG     1     -24.099 -17.672 -14.906  1.00  0.00     0.183 C 
HETATM   33  C   LIG     1     -23.589 -16.479 -15.701  1.00  0.00     0.134 C 
ENDBRANCH  25  28
ENDBRANCH   1  25
TORSDOF 6
ENDMDL
MODEL 7
REMARK VINA RESULT:      -8.1      3.983      7.670
REMARK  6 active torsions:
REMARK  status: ('A' for Active; 'I' for Inactive)
REMARK    1  A    between atoms: S_2  and  N_9 
REMARK    2  A    between atoms: S_2  and  C_15 
REMARK    3  A    between atoms: O_6  and  C_19 
REMARK    4  A    between atoms: N_10  and  C_18 
REMARK       I    between atoms: N_10  and  C_21 
REMARK    5  A    between atoms: C_21  and  C_22 
REMARK    6  A    between atoms: C_23  and  C_26 
ROOT
HETATM    1  C   LIG     1     -22.510 -13.836 -15.367  1.00  0.00     0.077 A 
HETATM    2  C   LIG     1     -22.415 -14.257 -14.051  1.00  0.00     0.057 A 
HETATM    3  C   LIG     1     -21.425 -13.281 -16.028  1.00  0.00     0.028 A 
HETATM    4  C   LIG     1     -21.202 -14.120 -13.375  1.00  0.00     0.070 A 
HETATM    5  C   LIG     1     -20.101 -13.564 -14.026  1.00  0.00     0.095 A 
HETATM    6  C   LIG     1     -20.212 -13.144 -15.353  1.00  0.00     0.040 A 
ENDROOT
BRANCH   4   7
HETATM    7  N   LIG     1     -21.105 -14.544 -12.049  1.00  0.00    -0.319 N 
HETATM    8  C   LIG     1     -21.171 -13.768 -10.874  1.00  0.00     0.280 C 
HETATM    9  O   LIG     1     -21.330 -12.549 -10.866  1.00  0.00    -0.265 OA
HETATM   10  H   LIG     1     -20.968 -15.544 -11.924  1.00  0.00     0.169 HD
BRANCH   8  11
HETATM   11  C   LIG     1     -20.990 -14.517  -9.619  1.00  0.00     0.144 A 
HETATM   12  O   LIG     1     -20.682 -15.811  -9.750  1.00  0.00    -0.304 OA
HETATM   13  C   LIG     1     -20.571 -16.269  -8.476  1.00  0.00     0.088 A 
HETATM   14  C   LIG     1     -20.809 -15.258  -7.575  1.00  0.00     0.041 A 
HETATM   15  C   LIG     1     -21.086 -14.104  -8.346  1.00  0.00     0.046 A 
BRANCH  13  16
HETATM   16  C   LIG     1     -20.238 -17.660  -8.349  1.00  0.00     0.019 A 
HETATM   17  C   LIG     1     -20.995 -18.541  -7.564  1.00  0.00     0.047 A 
HETATM   18 CL   LIG     1     -22.387 -18.006  -6.688  1.00  0.00    -0.083 Cl
HETATM   19  C   LIG     1     -20.637 -19.885  -7.467  1.00  0.00     0.025 A 
HETATM   20  C   LIG     1     -19.520 -20.360  -8.155  1.00  0.00     0.002 A 
HETATM   21  C   LIG     1     -18.762 -19.491  -8.939  1.00  0.00     0.001 A 
HETATM   22  C   LIG     1     -19.120 -18.147  -9.036  1.00  0.00     0.016 A 
ENDBRANCH  13  16
ENDBRANCH   8  11
ENDBRANCH   4   7
BRANCH   5  23
HETATM   23  O   LIG     1     -18.907 -13.420 -13.385  1.00  0.00    -0.354 OA
HETATM   24  C   LIG     1     -17.880 -14.356 -13.709  1.00  0.00     0.210 C 
ENDBRANCH   5  23
BRANCH   1  25
HETATM   25  S   LIG     1     -24.045 -14.010 -16.222  1.00  0.00     0.243 S 
HETATM   26  O   LIG     1     -24.936 -12.972 -15.745  1.00  0.00    -0.206 OA
HETATM   27  O   LIG     1     -23.756 -14.154 -17.633  1.00  0.00    -0.206 OA
BRANCH  25  28
HETATM   28  N   LIG     1     -24.563 -15.520 -15.603  1.00  0.00    -0.202 NA
HETATM   29  C   LIG     1     -25.955 -15.918 -15.964  1.00  0.00     0.134 C 
HETATM   30  C   LIG     1     -26.342 -17.140 -15.141  1.00  0.00     0.183 C 
HETATM   31  O   LIG     1     -25.423 -18.209 -15.378  1.00  0.00    -0.389 OA
HETATM   32  C   LIG     1     -24.099 -17.844 -14.984  1.00  0.00     0.183 C 
HETATM   33  C   LIG     1     -23.613 -16.654 -15.799  1.00  0.00     0.134 C 
ENDBRANCH  25  28
ENDBRANCH   1  25
TORSDOF 6
ENDMDL
MODEL 8
REMARK VINA RESULT:      -8.1      3.746      7.412
REMARK  6 active torsions:
REMARK  status: ('A' for Active; 'I' for Inactive)
REMARK    1  A    between atoms: S_2  and  N_9 
REMARK    2  A    between atoms: S_2  and  C_15 
REMARK    3  A    between atoms: O_6  and  C_19 
REMARK    4  A    between atoms: N_10  and  C_18 
REMARK       I    between atoms: N_10  and  C_21 
REMARK    5  A    between atoms: C_21  and  C_22 
REMARK    6  A    between atoms: C_23  and  C_26 
ROOT
HETATM    1  C   LIG     1     -22.074 -14.176 -15.279  1.00  0.00     0.077 A 
HETATM    2  C   LIG     1     -21.970 -14.917 -14.113  1.00  0.00     0.057 A 
HETATM    3  C   LIG     1     -21.040 -13.361 -15.711  1.00  0.00     0.028 A 
HETATM    4  C   LIG     1     -20.800 -14.841 -13.358  1.00  0.00     0.070 A 
HETATM    5  C   LIG     1     -19.750 -14.025 -13.779  1.00  0.00     0.095 A 
HETATM    6  C   LIG     1     -19.870 -13.284 -14.955  1.00  0.00     0.040 A 
ENDROOT
BRANCH   4   7
HETATM    7  N   LIG     1     -20.694 -15.587 -12.182  1.00  0.00    -0.319 N 
HETATM    8  C   LIG     1     -19.905 -16.729 -11.938  1.00  0.00     0.280 C 
HETATM    9  O   LIG     1     -19.167 -17.244 -12.775  1.00  0.00    -0.265 OA
HETATM   10  H   LIG     1     -21.265 -15.257 -11.408  1.00  0.00     0.169 HD
BRANCH   8  11
HETATM   11  C   LIG     1     -20.051 -17.313 -10.594  1.00  0.00     0.144 A 
HETATM   12  O   LIG     1     -21.182 -17.017  -9.946  1.00  0.00    -0.304 OA
HETATM   13  C   LIG     1     -21.076 -17.662  -8.755  1.00  0.00     0.088 A 
HETATM   14  C   LIG     1     -19.886 -18.347  -8.679  1.00  0.00     0.041 A 
HETATM   15  C   LIG     1     -19.217 -18.107  -9.903  1.00  0.00     0.046 A 
BRANCH  13  16
HETATM   16  C   LIG     1     -22.191 -17.496  -7.865  1.00  0.00     0.019 A 
HETATM   17  C   LIG     1     -23.443 -17.051  -8.310  1.00  0.00     0.047 A 
HETATM   18 CL   LIG     1     -23.730 -16.668  -9.972  1.00  0.00    -0.083 Cl
HETATM   19  C   LIG     1     -24.499 -16.904  -7.411  1.00  0.00     0.025 A 
HETATM   20  C   LIG     1     -24.312 -17.200  -6.061  1.00  0.00     0.002 A 
HETATM   21  C   LIG     1     -23.070 -17.644  -5.610  1.00  0.00     0.001 A 
HETATM   22  C   LIG     1     -22.013 -17.792  -6.508  1.00  0.00     0.016 A 
ENDBRANCH  13  16
ENDBRANCH   8  11
ENDBRANCH   4   7
BRANCH   5  23
HETATM   23  O   LIG     1     -18.599 -13.936 -13.055  1.00  0.00    -0.354 OA
HETATM   24  C   LIG     1     -17.413 -14.451 -13.657  1.00  0.00     0.210 C 
ENDBRANCH   5  23
BRANCH   1  25
HETATM   25  S   LIG     1     -23.554 -14.272 -16.236  1.00  0.00     0.243 S 
HETATM   26  O   LIG     1     -24.410 -13.174 -15.837  1.00  0.00    -0.206 OA
HETATM   27  O   LIG     1     -23.179 -14.460 -17.621  1.00  0.00    -0.206 OA
BRANCH  25  28
HETATM   28  N   LIG     1     -24.206 -15.736 -15.633  1.00  0.00    -0.202 NA
HETATM   29  C   LIG     1     -25.664 -15.938 -15.875  1.00  0.00     0.134 C 
HETATM   30  C   LIG     1     -26.131 -17.143 -15.071  1.00  0.00     0.183 C 
HETATM   31  O   LIG     1     -25.383 -18.305 -15.437  1.00  0.00    -0.389 OA
HETATM   32  C   LIG     1     -23.993 -18.130 -15.157  1.00  0.00     0.183 C 
HETATM   33  C   LIG     1     -23.432 -16.969 -15.965  1.00  0.00     0.134 C 
ENDBRANCH  25  28
ENDBRANCH   1  25
TORSDOF 6
ENDMDL
MODEL 9
REMARK VINA RESULT:      -8.0      2.230      4.783
REMARK  6 active torsions:
REMARK  status: ('A' for Active; 'I' for Inactive)
REMARK    1  A    between atoms: S_2  and  N_9 
REMARK    2  A    between atoms: S_2  and  C_15 
REMARK    3  A    between atoms: O_6  and  C_19 
REMARK    4  A    between atoms: N_10  and  C_18 
REMARK       I    between atoms: N_10  and  C_21 
REMARK    5  A    between atoms: C_21  and  C_22 
REMARK    6  A    between atoms: C_23  and  C_26 
ROOT
HETATM    1  C   LIG     1     -21.094 -14.017 -10.770  1.00  0.00     0.077 A 
HETATM    2  C   LIG     1     -21.073 -15.163 -11.549  1.00  0.00     0.057 A 
HETATM    3  C   LIG     1     -20.791 -14.058  -9.418  1.00  0.00     0.028 A 
HETATM    4  C   LIG     1     -20.739 -16.383 -10.961  1.00  0.00     0.070 A 
HETATM    5  C   LIG     1     -20.431 -16.440  -9.602  1.00  0.00     0.095 A 
HETATM    6  C   LIG     1     -20.457 -15.278  -8.830  1.00  0.00     0.040 A 
ENDROOT
BRANCH   4   7
HETATM    7  N   LIG     1     -20.717 -17.538 -11.744  1.00  0.00    -0.319 N 
HETATM    8  C   LIG     1     -19.768 -17.921 -12.714  1.00  0.00     0.280 C 
HETATM    9  O   LIG     1     -18.783 -17.249 -13.011  1.00  0.00    -0.265 OA
HETATM   10  H   LIG     1     -21.491 -18.180 -11.589  1.00  0.00     0.169 HD
BRANCH   8  11
HETATM   11  C   LIG     1     -20.056 -19.191 -13.401  1.00  0.00     0.144 A 
HETATM   12  O   LIG     1     -21.310 -19.352 -13.834  1.00  0.00    -0.304 OA
HETATM   13  C   LIG     1     -21.318 -20.577 -14.421  1.00  0.00     0.088 A 
HETATM   14  C   LIG     1     -20.074 -21.158 -14.346  1.00  0.00     0.041 A 
HETATM   15  C   LIG     1     -19.248 -20.229 -13.668  1.00  0.00     0.046 A 
BRANCH  13  16
HETATM   16  C   LIG     1     -22.579 -20.986 -14.974  1.00  0.00     0.019 A 
HETATM   17  C   LIG     1     -23.514 -20.064 -15.464  1.00  0.00     0.047 A 
HETATM   18 CL   LIG     1     -23.211 -18.362 -15.432  1.00  0.00    -0.083 Cl
HETATM   19  C   LIG     1     -24.727 -20.504 -15.993  1.00  0.00     0.025 A 
HETATM   20  C   LIG     1     -25.015 -21.869 -16.037  1.00  0.00     0.002 A 
HETATM   21  C   LIG     1     -24.089 -22.793 -15.552  1.00  0.00     0.001 A 
HETATM   22  C   LIG     1     -22.876 -22.353 -15.023  1.00  0.00     0.016 A 
ENDBRANCH  13  16
ENDBRANCH   8  11
ENDBRANCH   4   7
BRANCH   5  23
HETATM   23  O   LIG     1     -20.102 -17.622  -9.007  1.00  0.00    -0.354 OA
HETATM   24  C   LIG     1     -21.090 -18.224  -8.173  1.00  0.00     0.210 C 
ENDBRANCH   5  23
BRANCH   1  25
HETATM   25  S   LIG     1     -21.517 -12.473 -11.514  1.00  0.00     0.243 S 
HETATM   26  O   LIG     1     -22.620 -11.909 -10.765  1.00  0.00    -0.206 OA
HETATM   27  O   LIG     1     -20.293 -11.726 -11.717  1.00  0.00    -0.206 OA
BRANCH  25  28
HETATM   28  N   LIG     1     -22.092 -13.020 -13.032  1.00  0.00    -0.202 NA
HETATM   29  C   LIG     1     -23.320 -12.339 -13.536  1.00  0.00     0.134 C 
HETATM   30  C   LIG     1     -23.837 -13.100 -14.749  1.00  0.00     0.183 C 
HETATM   31  O   LIG     1     -22.831 -13.163 -15.762  1.00  0.00    -0.389 OA
HETATM   32  C   LIG     1     -21.675 -13.860 -15.295  1.00  0.00     0.183 C 
HETATM   33  C   LIG     1     -21.062 -13.133 -14.106  1.00  0.00     0.134 C 
ENDBRANCH  25  28
ENDBRANCH   1  25
TORSDOF 6
ENDMDL
