MODEL 1
REMARK VINA RESULT:      -8.9      0.000      0.000
REMARK  1 active torsions:
REMARK  status: ('A' for Active; 'I' for Inactive)
REMARK    1  A    between atoms: C_7  and  C_21 
ROOT
HETATM    1  O   LIG     1     -21.527 -14.257  -6.708  1.00  0.00    -0.291 OA
HETATM    2  C   LIG     1     -23.257 -14.931 -14.120  1.00  0.00     0.000 C 
HETATM    3  C   LIG     1     -23.206 -13.649 -14.978  1.00  0.00     0.006 C 
HETATM    4  C   LIG     1     -22.200 -14.949 -13.011  1.00  0.00     0.001 C 
HETATM    5  C   LIG     1     -22.433 -13.724 -12.073  1.00  0.00     0.004 C 
HETATM    6  C   LIG     1     -21.418 -13.673 -10.867  1.00  0.00     0.016 C 
HETATM    7  C   LIG     1     -24.321 -13.983 -15.993  1.00  0.00     0.058 C 
HETATM    8  C   LIG     1     -23.510 -12.459 -14.058  1.00  0.00     0.000 C 
HETATM    9  C   LIG     1     -22.531 -12.395 -12.872  1.00  0.00     0.000 C 
HETATM   10  C   LIG     1     -23.262 -16.049 -15.157  1.00  0.00     0.000 C 
HETATM   11  C   LIG     1     -22.260 -16.251 -12.201  1.00  0.00     0.004 C 
HETATM   12  C   LIG     1     -24.115 -15.480 -16.306  1.00  0.00     0.007 C 
HETATM   13  C   LIG     1     -21.370 -15.044 -10.180  1.00  0.00    -0.042 C 
HETATM   14  C   LIG     1     -21.849 -13.424 -15.695  1.00  0.00     0.000 C 
HETATM   15  C   LIG     1     -21.229 -16.249 -11.080  1.00  0.00     0.022 C 
HETATM   16  C   LIG     1     -21.907 -12.591  -9.862  1.00  0.00     0.012 C 
HETATM   17  C   LIG     1     -19.987 -13.316 -11.331  1.00  0.00     0.004 C 
HETATM   18  C   LIG     1     -21.249 -12.687  -8.494  1.00  0.00     0.070 C 
HETATM   19  C   LIG     1     -21.422 -15.219  -8.848  1.00  0.00     0.029 C 
HETATM   20  C   LIG     1     -21.437 -14.066  -7.919  1.00  0.00     0.172 C 
ENDROOT
BRANCH   7  21
HETATM   21  C   LIG     1     -24.309 -13.136 -17.228  1.00  0.00     0.151 C 
HETATM   22  O   LIG     1     -24.590 -11.939 -17.191  1.00  0.00    -0.296 OA
HETATM   23  C   LIG     1     -23.935 -13.821 -18.514  1.00  0.00     0.072 C 
ENDBRANCH   7  21
TORSDOF 1
ENDMDL
