MODEL 1
REMARK VINA RESULT:      -7.3      0.000      0.000
REMARK  3 active torsions:
REMARK  status: ('A' for Active; 'I' for Inactive)
REMARK    1  A    between atoms: C_5  and  C_15 
REMARK    2  A    between atoms: C_15  and  C_16 
REMARK    3  A    between atoms: C_16  and  C_17 
ROOT
HETATM    1  O   LIG     1     -20.056 -16.049  -9.094  1.00  0.00    -0.287 OA
HETATM    2  O   LIG     1     -20.107 -16.265 -11.325  1.00  0.00    -0.238 OA
HETATM    3  N   LIG     1     -21.480 -14.642 -10.374  1.00  0.00    -0.300 N 
HETATM    4  C   LIG     1     -22.044 -14.014  -9.143  1.00  0.00     0.071 C 
HETATM    5  C   LIG     1     -20.939 -14.045  -8.056  1.00  0.00     0.047 C 
HETATM    6  C   LIG     1     -20.573 -15.511  -7.853  1.00  0.00     0.128 C 
HETATM    7  C   LIG     1     -23.287 -14.822  -8.677  1.00  0.00     0.021 C 
HETATM    8  C   LIG     1     -22.439 -12.537  -9.418  1.00  0.00     0.021 C 
HETATM    9  C   LIG     1     -21.746 -16.375  -7.380  1.00  0.00     0.030 C 
HETATM   10  C   LIG     1     -22.965 -16.267  -8.292  1.00  0.00     0.004 C 
HETATM   11  C   LIG     1     -23.234 -12.339 -10.702  1.00  0.00     0.004 C 
HETATM   12  C   LIG     1     -22.151 -14.382 -11.652  1.00  0.00     0.106 C 
HETATM   13  C   LIG     1     -22.459 -12.911 -11.878  1.00  0.00     0.024 C 
HETATM   14  C   LIG     1     -20.530 -15.680 -10.327  1.00  0.00     0.365 C 
ENDROOT
BRANCH   5  15
HETATM   15  C   LIG     1     -21.286 -13.354  -6.733  1.00  0.00     0.004 C 
BRANCH  15  16
HETATM   16  C   LIG     1     -20.448 -12.097  -6.535  1.00  0.00     0.000 C 
BRANCH  16  17
HETATM   17  C   LIG     1     -21.083 -11.176  -5.493  1.00  0.00     0.000 C 
HETATM   18  C   LIG     1     -20.223  -9.948  -5.237  1.00  0.00     0.000 C 
ENDBRANCH  16  17
ENDBRANCH  15  16
ENDBRANCH   5  15
TORSDOF 3
ENDMDL
