MODEL 1
REMARK VINA RESULT:      -7.5      0.000      0.000
REMARK  10 active torsions:
REMARK  status: ('A' for Active; 'I' for Inactive)
REMARK    1  A    between atoms: O_1  and  C_15 
REMARK    2  A    between atoms: O_1  and  C_20 
REMARK    3  A    between atoms: N_3  and  C_11 
REMARK    4  A    between atoms: N_5  and  C_14 
REMARK       I    between atoms: N_5  and  C_21 
REMARK    5  A    between atoms: C_6  and  C_7 
REMARK    6  A    between atoms: C_6  and  C_8 
REMARK    7  A    between atoms: C_7  and  C_9 
REMARK    8  A    between atoms: C_9  and  C_12 
REMARK    9  A    between atoms: C_11  and  C_15 
REMARK   10  A    between atoms: C_12  and  C_14 
ROOT
HETATM    1  N   LIG     1     -21.747 -16.326 -10.052  1.00  0.00    -0.331 N 
HETATM    2  N   LIG     1     -20.514 -17.480  -8.607  1.00  0.00    -0.233 NA
HETATM    3  C   LIG     1     -20.537 -16.903  -9.787  1.00  0.00     0.107 A 
HETATM    4  C   LIG     1     -22.561 -16.547  -8.970  1.00  0.00     0.065 A 
HETATM    5  C   LIG     1     -21.768 -17.268  -8.082  1.00  0.00     0.085 A 
HETATM    6  C   LIG     1     -23.882 -16.187  -8.700  1.00  0.00     0.032 A 
HETATM    7  C   LIG     1     -22.309 -17.664  -6.847  1.00  0.00     0.034 A 
HETATM    8  C   LIG     1     -24.404 -16.588  -7.467  1.00  0.00     0.002 A 
HETATM    9  C   LIG     1     -23.634 -17.313  -6.555  1.00  0.00     0.002 A 
ENDROOT
BRANCH   3  10
HETATM   10  C   LIG     1     -19.393 -16.855 -10.770  1.00  0.00     0.079 C 
BRANCH  10  11
HETATM   11  C   LIG     1     -19.009 -18.235 -11.318  1.00  0.00     0.008 C 
BRANCH  11  12
HETATM   12  C   LIG     1     -19.153 -18.343 -12.840  1.00  0.00     0.002 C 
BRANCH  12  13
HETATM   13  C   LIG     1     -19.302 -16.959 -13.481  1.00  0.00     0.020 C 
BRANCH  13  14
HETATM   14  C   LIG     1     -20.571 -16.835 -14.316  1.00  0.00     0.122 C 
BRANCH  14  15
HETATM   15  N   LIG     1     -20.641 -15.588 -15.027  1.00  0.00    -0.361 N 
HETATM   16  C   LIG     1     -21.794 -14.819 -15.115  1.00  0.00     0.213 C 
HETATM   17  O   LIG     1     -22.879 -15.098 -14.610  1.00  0.00    -0.274 OA
HETATM   18  C   LIG     1     -21.584 -13.549 -15.895  1.00  0.00     0.117 C 
HETATM   19  H   LIG     1     -19.793 -15.254 -15.476  1.00  0.00     0.162 HD
ENDBRANCH  14  15
ENDBRANCH  13  14
ENDBRANCH  12  13
ENDBRANCH  11  12
ENDBRANCH  10  11
ENDBRANCH   3  10
BRANCH   1  20
HETATM   20  C   LIG     1     -22.110 -15.612 -11.254  1.00  0.00     0.156 C 
BRANCH  20  21
HETATM   21  C   LIG     1     -22.086 -14.101 -11.066  1.00  0.00     0.187 C 
BRANCH  21  22
HETATM   22  O   LIG     1     -20.741 -13.641 -11.055  1.00  0.00    -0.390 OA
BRANCH  22  23
HETATM   23  C   LIG     1     -20.461 -12.822 -12.181  1.00  0.00     0.163 C 
HETATM   24  C   LIG     1     -19.150 -13.262 -12.797  1.00  0.00     0.033 C 
ENDBRANCH  22  23
ENDBRANCH  21  22
ENDBRANCH  20  21
ENDBRANCH   1  20
TORSDOF 10
ENDMDL
MODEL 2
REMARK VINA RESULT:      -7.4      4.901      6.189
REMARK  10 active torsions:
REMARK  status: ('A' for Active; 'I' for Inactive)
REMARK    1  A    between atoms: O_1  and  C_15 
REMARK    2  A    between atoms: O_1  and  C_20 
REMARK    3  A    between atoms: N_3  and  C_11 
REMARK    4  A    between atoms: N_5  and  C_14 
REMARK       I    between atoms: N_5  and  C_21 
REMARK    5  A    between atoms: C_6  and  C_7 
REMARK    6  A    between atoms: C_6  and  C_8 
REMARK    7  A    between atoms: C_7  and  C_9 
REMARK    8  A    between atoms: C_9  and  C_12 
REMARK    9  A    between atoms: C_11  and  C_15 
REMARK   10  A    between atoms: C_12  and  C_14 
ROOT
HETATM    1  N   LIG     1     -19.167 -19.290 -12.619  1.00  0.00    -0.331 N 
HETATM    2  N   LIG     1     -19.469 -21.334 -11.801  1.00  0.00    -0.233 NA
HETATM    3  C   LIG     1     -19.455 -20.598 -12.890  1.00  0.00     0.107 A 
HETATM    4  C   LIG     1     -18.985 -19.172 -11.266  1.00  0.00     0.065 A 
HETATM    5  C   LIG     1     -19.178 -20.461 -10.777  1.00  0.00     0.085 A 
HETATM    6  C   LIG     1     -18.676 -18.082 -10.450  1.00  0.00     0.032 A 
HETATM    7  C   LIG     1     -19.061 -20.695  -9.397  1.00  0.00     0.034 A 
HETATM    8  C   LIG     1     -18.562 -18.333  -9.080  1.00  0.00     0.002 A 
HETATM    9  C   LIG     1     -18.751 -19.616  -8.560  1.00  0.00     0.002 A 
ENDROOT
BRANCH   3  10
HETATM   10  C   LIG     1     -19.718 -21.089 -14.292  1.00  0.00     0.079 C 
BRANCH  10  11
HETATM   11  C   LIG     1     -21.173 -21.516 -14.520  1.00  0.00     0.008 C 
BRANCH  11  12
HETATM   12  C   LIG     1     -22.128 -20.332 -14.707  1.00  0.00     0.002 C 
BRANCH  12  13
HETATM   13  C   LIG     1     -23.534 -20.811 -15.087  1.00  0.00     0.020 C 
BRANCH  13  14
HETATM   14  C   LIG     1     -23.600 -22.319 -15.301  1.00  0.00     0.122 C 
BRANCH  14  15
HETATM   15  N   LIG     1     -24.765 -22.717 -16.043  1.00  0.00    -0.361 N 
HETATM   16  C   LIG     1     -25.252 -24.018 -16.064  1.00  0.00     0.213 C 
HETATM   17  O   LIG     1     -24.762 -24.974 -15.468  1.00  0.00    -0.274 OA
HETATM   18  C   LIG     1     -26.498 -24.155 -16.896  1.00  0.00     0.117 C 
HETATM   19  H   LIG     1     -25.259 -22.000 -16.566  1.00  0.00     0.162 HD
ENDBRANCH  14  15
ENDBRANCH  13  14
ENDBRANCH  12  13
ENDBRANCH  11  12
ENDBRANCH  10  11
ENDBRANCH   3  10
BRANCH   1  20
HETATM   20  C   LIG     1     -19.073 -18.217 -13.584  1.00  0.00     0.156 C 
BRANCH  20  21
HETATM   21  C   LIG     1     -20.317 -17.338 -13.605  1.00  0.00     0.187 C 
BRANCH  21  22
HETATM   22  O   LIG     1     -20.098 -16.221 -14.456  1.00  0.00    -0.390 OA
BRANCH  22  23
HETATM   23  C   LIG     1     -19.723 -15.068 -13.715  1.00  0.00     0.163 C 
HETATM   24  C   LIG     1     -18.243 -14.817 -13.909  1.00  0.00     0.033 C 
ENDBRANCH  22  23
ENDBRANCH  21  22
ENDBRANCH  20  21
ENDBRANCH   1  20
TORSDOF 10
ENDMDL
MODEL 3
REMARK VINA RESULT:      -7.4      1.995      4.140
REMARK  10 active torsions:
REMARK  status: ('A' for Active; 'I' for Inactive)
REMARK    1  A    between atoms: O_1  and  C_15 
REMARK    2  A    between atoms: O_1  and  C_20 
REMARK    3  A    between atoms: N_3  and  C_11 
REMARK    4  A    between atoms: N_5  and  C_14 
REMARK       I    between atoms: N_5  and  C_21 
REMARK    5  A    between atoms: C_6  and  C_7 
REMARK    6  A    between atoms: C_6  and  C_8 
REMARK    7  A    between atoms: C_7  and  C_9 
REMARK    8  A    between atoms: C_9  and  C_12 
REMARK    9  A    between atoms: C_11  and  C_15 
REMARK   10  A    between atoms: C_12  and  C_14 
ROOT
HETATM    1  N   LIG     1     -21.227 -16.653  -9.320  1.00  0.00    -0.331 N 
HETATM    2  N   LIG     1     -23.205 -15.946 -10.047  1.00  0.00    -0.233 NA
HETATM    3  C   LIG     1     -21.932 -16.085 -10.344  1.00  0.00     0.107 A 
HETATM    4  C   LIG     1     -22.103 -16.896  -8.293  1.00  0.00     0.065 A 
HETATM    5  C   LIG     1     -23.330 -16.446  -8.771  1.00  0.00     0.085 A 
HETATM    6  C   LIG     1     -21.932 -17.454  -7.025  1.00  0.00     0.032 A 
HETATM    7  C   LIG     1     -24.465 -16.551  -7.950  1.00  0.00     0.034 A 
HETATM    8  C   LIG     1     -23.072 -17.552  -6.222  1.00  0.00     0.002 A 
HETATM    9  C   LIG     1     -24.317 -17.109  -6.673  1.00  0.00     0.002 A 
ENDROOT
BRANCH   3  10
HETATM   10  C   LIG     1     -21.278 -15.682 -11.643  1.00  0.00     0.079 C 
BRANCH  10  11
HETATM   11  C   LIG     1     -22.131 -16.004 -12.875  1.00  0.00     0.008 C 
BRANCH  11  12
HETATM   12  C   LIG     1     -22.641 -14.755 -13.601  1.00  0.00     0.002 C 
BRANCH  12  13
HETATM   13  C   LIG     1     -22.008 -14.626 -14.991  1.00  0.00     0.020 C 
BRANCH  13  14
HETATM   14  C   LIG     1     -20.971 -13.510 -15.060  1.00  0.00     0.122 C 
BRANCH  14  15
HETATM   15  N   LIG     1     -19.657 -13.958 -14.689  1.00  0.00    -0.361 N 
HETATM   16  C   LIG     1     -19.008 -13.552 -13.530  1.00  0.00     0.213 C 
HETATM   17  O   LIG     1     -19.460 -12.776 -12.692  1.00  0.00    -0.274 OA
HETATM   18  C   LIG     1     -17.655 -14.192 -13.371  1.00  0.00     0.117 C 
HETATM   19  H   LIG     1     -19.192 -14.616 -15.307  1.00  0.00     0.162 HD
ENDBRANCH  14  15
ENDBRANCH  13  14
ENDBRANCH  12  13
ENDBRANCH  11  12
ENDBRANCH  10  11
ENDBRANCH   3  10
BRANCH   1  20
HETATM   20  C   LIG     1     -19.812 -16.947  -9.315  1.00  0.00     0.156 C 
BRANCH  20  21
HETATM   21  C   LIG     1     -19.489 -18.277  -9.984  1.00  0.00     0.187 C 
BRANCH  21  22
HETATM   22  O   LIG     1     -18.544 -18.990  -9.197  1.00  0.00    -0.390 OA
BRANCH  22  23
HETATM   23  C   LIG     1     -18.980 -20.317  -8.937  1.00  0.00     0.163 C 
HETATM   24  C   LIG     1     -19.566 -20.379  -7.543  1.00  0.00     0.033 C 
ENDBRANCH  22  23
ENDBRANCH  21  22
ENDBRANCH  20  21
ENDBRANCH   1  20
TORSDOF 10
ENDMDL
MODEL 4
REMARK VINA RESULT:      -7.3      2.363      4.657
REMARK  10 active torsions:
REMARK  status: ('A' for Active; 'I' for Inactive)
REMARK    1  A    between atoms: O_1  and  C_15 
REMARK    2  A    between atoms: O_1  and  C_20 
REMARK    3  A    between atoms: N_3  and  C_11 
REMARK    4  A    between atoms: N_5  and  C_14 
REMARK       I    between atoms: N_5  and  C_21 
REMARK    5  A    between atoms: C_6  and  C_7 
REMARK    6  A    between atoms: C_6  and  C_8 
REMARK    7  A    between atoms: C_7  and  C_9 
REMARK    8  A    between atoms: C_9  and  C_12 
REMARK    9  A    between atoms: C_11  and  C_15 
REMARK   10  A    between atoms: C_12  and  C_14 
ROOT
HETATM    1  N   LIG     1     -18.764 -18.124 -11.114  1.00  0.00    -0.331 N 
HETATM    2  N   LIG     1     -19.096 -18.360 -13.299  1.00  0.00    -0.233 NA
HETATM    3  C   LIG     1     -18.836 -17.509 -12.332  1.00  0.00     0.107 A 
HETATM    4  C   LIG     1     -18.995 -19.462 -11.306  1.00  0.00     0.065 A 
HETATM    5  C   LIG     1     -19.198 -19.584 -12.678  1.00  0.00     0.085 A 
HETATM    6  C   LIG     1     -19.040 -20.544 -10.426  1.00  0.00     0.032 A 
HETATM    7  C   LIG     1     -19.465 -20.852 -13.221  1.00  0.00     0.034 A 
HETATM    8  C   LIG     1     -19.306 -21.798 -10.983  1.00  0.00     0.002 A 
HETATM    9  C   LIG     1     -19.515 -21.952 -12.355  1.00  0.00     0.002 A 
ENDROOT
BRANCH   3  10
HETATM   10  C   LIG     1     -18.633 -16.022 -12.494  1.00  0.00     0.079 C 
BRANCH  10  11
HETATM   11  C   LIG     1     -18.977 -15.515 -13.899  1.00  0.00     0.008 C 
BRANCH  11  12
HETATM   12  C   LIG     1     -19.170 -13.996 -13.963  1.00  0.00     0.002 C 
BRANCH  12  13
HETATM   13  C   LIG     1     -20.594 -13.637 -14.404  1.00  0.00     0.020 C 
BRANCH  13  14
HETATM   14  C   LIG     1     -21.327 -14.819 -15.029  1.00  0.00     0.122 C 
BRANCH  14  15
HETATM   15  N   LIG     1     -21.878 -14.504 -16.318  1.00  0.00    -0.361 N 
HETATM   16  C   LIG     1     -23.218 -14.200 -16.526  1.00  0.00     0.213 C 
HETATM   17  O   LIG     1     -24.085 -14.164 -15.657  1.00  0.00    -0.274 OA
HETATM   18  C   LIG     1     -23.521 -13.883 -17.966  1.00  0.00     0.117 C 
HETATM   19  H   LIG     1     -21.244 -14.493 -17.112  1.00  0.00     0.162 HD
ENDBRANCH  14  15
ENDBRANCH  13  14
ENDBRANCH  12  13
ENDBRANCH  11  12
ENDBRANCH  10  11
ENDBRANCH   3  10
BRANCH   1  20
HETATM   20  C   LIG     1     -18.496 -17.484  -9.847  1.00  0.00     0.156 C 
BRANCH  20  21
HETATM   21  C   LIG     1     -19.764 -17.221  -9.044  1.00  0.00     0.187 C 
BRANCH  21  22
HETATM   22  O   LIG     1     -20.122 -15.849  -9.151  1.00  0.00    -0.390 OA
BRANCH  22  23
HETATM   23  C   LIG     1     -21.326 -15.681  -9.886  1.00  0.00     0.163 C 
HETATM   24  C   LIG     1     -21.332 -14.305 -10.516  1.00  0.00     0.033 C 
ENDBRANCH  22  23
ENDBRANCH  21  22
ENDBRANCH  20  21
ENDBRANCH   1  20
TORSDOF 10
ENDMDL
MODEL 5
REMARK VINA RESULT:      -7.3      2.257      3.997
REMARK  10 active torsions:
REMARK  status: ('A' for Active; 'I' for Inactive)
REMARK    1  A    between atoms: O_1  and  C_15 
REMARK    2  A    between atoms: O_1  and  C_20 
REMARK    3  A    between atoms: N_3  and  C_11 
REMARK    4  A    between atoms: N_5  and  C_14 
REMARK       I    between atoms: N_5  and  C_21 
REMARK    5  A    between atoms: C_6  and  C_7 
REMARK    6  A    between atoms: C_6  and  C_8 
REMARK    7  A    between atoms: C_7  and  C_9 
REMARK    8  A    between atoms: C_9  and  C_12 
REMARK    9  A    between atoms: C_11  and  C_15 
REMARK   10  A    between atoms: C_12  and  C_14 
ROOT
HETATM    1  N   LIG     1     -19.886 -17.624  -9.577  1.00  0.00    -0.331 N 
HETATM    2  N   LIG     1     -20.897 -16.202 -10.953  1.00  0.00    -0.233 NA
HETATM    3  C   LIG     1     -19.818 -16.924 -10.749  1.00  0.00     0.107 A 
HETATM    4  C   LIG     1     -21.088 -17.334  -8.984  1.00  0.00     0.065 A 
HETATM    5  C   LIG     1     -21.701 -16.445  -9.863  1.00  0.00     0.085 A 
HETATM    6  C   LIG     1     -21.674 -17.760  -7.792  1.00  0.00     0.032 A 
HETATM    7  C   LIG     1     -22.974 -15.940  -9.549  1.00  0.00     0.034 A 
HETATM    8  C   LIG     1     -22.942 -17.249  -7.496  1.00  0.00     0.002 A 
HETATM    9  C   LIG     1     -23.582 -16.355  -8.357  1.00  0.00     0.002 A 
ENDROOT
BRANCH   3  10
HETATM   10  C   LIG     1     -18.622 -17.005 -11.665  1.00  0.00     0.079 C 
BRANCH  10  11
HETATM   11  C   LIG     1     -18.993 -17.332 -13.116  1.00  0.00     0.008 C 
BRANCH  11  12
HETATM   12  C   LIG     1     -18.579 -16.239 -14.107  1.00  0.00     0.002 C 
BRANCH  12  13
HETATM   13  C   LIG     1     -17.904 -15.066 -13.387  1.00  0.00     0.020 C 
BRANCH  13  14
HETATM   14  C   LIG     1     -18.700 -13.772 -13.503  1.00  0.00     0.122 C 
BRANCH  14  15
HETATM   15  N   LIG     1     -19.567 -13.762 -14.649  1.00  0.00    -0.361 N 
HETATM   16  C   LIG     1     -20.931 -13.507 -14.577  1.00  0.00     0.213 C 
HETATM   17  O   LIG     1     -21.558 -13.264 -13.550  1.00  0.00    -0.274 OA
HETATM   18  C   LIG     1     -21.595 -13.531 -15.927  1.00  0.00     0.117 C 
HETATM   19  H   LIG     1     -19.149 -13.939 -15.558  1.00  0.00     0.162 HD
ENDBRANCH  14  15
ENDBRANCH  13  14
ENDBRANCH  12  13
ENDBRANCH  11  12
ENDBRANCH  10  11
ENDBRANCH   3  10
BRANCH   1  20
HETATM   20  C   LIG     1     -18.873 -18.511  -9.051  1.00  0.00     0.156 C 
BRANCH  20  21
HETATM   21  C   LIG     1     -19.207 -19.980  -9.281  1.00  0.00     0.187 C 
BRANCH  21  22
HETATM   22  O   LIG     1     -18.885 -20.339 -10.619  1.00  0.00    -0.390 OA
BRANCH  22  23
HETATM   23  C   LIG     1     -19.105 -21.722 -10.854  1.00  0.00     0.163 C 
HETATM   24  C   LIG     1     -19.453 -21.926 -12.313  1.00  0.00     0.033 C 
ENDBRANCH  22  23
ENDBRANCH  21  22
ENDBRANCH  20  21
ENDBRANCH   1  20
TORSDOF 10
ENDMDL
MODEL 6
REMARK VINA RESULT:      -7.2      2.457      5.842
REMARK  10 active torsions:
REMARK  status: ('A' for Active; 'I' for Inactive)
REMARK    1  A    between atoms: O_1  and  C_15 
REMARK    2  A    between atoms: O_1  and  C_20 
REMARK    3  A    between atoms: N_3  and  C_11 
REMARK    4  A    between atoms: N_5  and  C_14 
REMARK       I    between atoms: N_5  and  C_21 
REMARK    5  A    between atoms: C_6  and  C_7 
REMARK    6  A    between atoms: C_6  and  C_8 
REMARK    7  A    between atoms: C_7  and  C_9 
REMARK    8  A    between atoms: C_9  and  C_12 
REMARK    9  A    between atoms: C_11  and  C_15 
REMARK   10  A    between atoms: C_12  and  C_14 
ROOT
HETATM    1  N   LIG     1     -18.764 -18.125 -11.093  1.00  0.00    -0.331 N 
HETATM    2  N   LIG     1     -19.101 -18.220 -13.288  1.00  0.00    -0.233 NA
HETATM    3  C   LIG     1     -18.824 -17.435 -12.271  1.00  0.00     0.107 A 
HETATM    4  C   LIG     1     -19.020 -19.444 -11.367  1.00  0.00     0.065 A 
HETATM    5  C   LIG     1     -19.227 -19.478 -12.743  1.00  0.00     0.085 A 
HETATM    6  C   LIG     1     -19.087 -20.576 -10.554  1.00  0.00     0.032 A 
HETATM    7  C   LIG     1     -19.518 -20.705 -13.362  1.00  0.00     0.034 A 
HETATM    8  C   LIG     1     -19.377 -21.789 -11.186  1.00  0.00     0.002 A 
HETATM    9  C   LIG     1     -19.589 -21.855 -12.565  1.00  0.00     0.002 A 
ENDROOT
BRANCH   3  10
HETATM   10  C   LIG     1     -18.593 -15.945 -12.342  1.00  0.00     0.079 C 
BRANCH  10  11
HETATM   11  C   LIG     1     -19.891 -15.137 -12.442  1.00  0.00     0.008 C 
BRANCH  11  12
HETATM   12  C   LIG     1     -19.661 -13.662 -12.789  1.00  0.00     0.002 C 
BRANCH  12  13
HETATM   13  C   LIG     1     -20.470 -12.743 -11.867  1.00  0.00     0.020 C 
BRANCH  13  14
HETATM   14  C   LIG     1     -21.471 -13.510 -11.009  1.00  0.00     0.122 C 
BRANCH  14  15
HETATM   15  N   LIG     1     -21.103 -13.529  -9.620  1.00  0.00    -0.361 N 
HETATM   16  C   LIG     1     -21.942 -13.984  -8.611  1.00  0.00     0.213 C 
HETATM   17  O   LIG     1     -23.079 -14.419  -8.770  1.00  0.00    -0.274 OA
HETATM   18  C   LIG     1     -21.299 -13.919  -7.252  1.00  0.00     0.117 C 
HETATM   19  H   LIG     1     -20.173 -13.200  -9.375  1.00  0.00     0.162 HD
ENDBRANCH  14  15
ENDBRANCH  13  14
ENDBRANCH  12  13
ENDBRANCH  11  12
ENDBRANCH  10  11
ENDBRANCH   3  10
BRANCH   1  20
HETATM   20  C   LIG     1     -18.483 -17.569  -9.789  1.00  0.00     0.156 C 
BRANCH  20  21
HETATM   21  C   LIG     1     -19.719 -16.969  -9.131  1.00  0.00     0.187 C 
BRANCH  21  22
HETATM   22  O   LIG     1     -20.422 -17.981  -8.422  1.00  0.00    -0.390 OA
BRANCH  22  23
HETATM   23  C   LIG     1     -21.819 -17.719  -8.390  1.00  0.00     0.163 C 
HETATM   24  C   LIG     1     -22.260 -17.574  -6.950  1.00  0.00     0.033 C 
ENDBRANCH  22  23
ENDBRANCH  21  22
ENDBRANCH  20  21
ENDBRANCH   1  20
TORSDOF 10
ENDMDL
MODEL 7
REMARK VINA RESULT:      -7.2      2.837      4.809
REMARK  10 active torsions:
REMARK  status: ('A' for Active; 'I' for Inactive)
REMARK    1  A    between atoms: O_1  and  C_15 
REMARK    2  A    between atoms: O_1  and  C_20 
REMARK    3  A    between atoms: N_3  and  C_11 
REMARK    4  A    between atoms: N_5  and  C_14 
REMARK       I    between atoms: N_5  and  C_21 
REMARK    5  A    between atoms: C_6  and  C_7 
REMARK    6  A    between atoms: C_6  and  C_8 
REMARK    7  A    between atoms: C_7  and  C_9 
REMARK    8  A    between atoms: C_9  and  C_12 
REMARK    9  A    between atoms: C_11  and  C_15 
REMARK   10  A    between atoms: C_12  and  C_14 
ROOT
HETATM    1  N   LIG     1     -20.972 -16.391  -9.259  1.00  0.00    -0.331 N 
HETATM    2  N   LIG     1     -22.846 -15.783 -10.286  1.00  0.00    -0.233 NA
HETATM    3  C   LIG     1     -21.539 -15.869 -10.388  1.00  0.00     0.107 A 
HETATM    4  C   LIG     1     -21.980 -16.659  -8.369  1.00  0.00     0.065 A 
HETATM    5  C   LIG     1     -23.140 -16.271  -9.033  1.00  0.00     0.085 A 
HETATM    6  C   LIG     1     -21.977 -17.191  -7.079  1.00  0.00     0.032 A 
HETATM    7  C   LIG     1     -24.380 -16.415  -8.388  1.00  0.00     0.034 A 
HETATM    8  C   LIG     1     -23.219 -17.329  -6.452  1.00  0.00     0.002 A 
HETATM    9  C   LIG     1     -24.400 -16.948  -7.092  1.00  0.00     0.002 A 
ENDROOT
BRANCH   3  10
HETATM   10  C   LIG     1     -20.716 -15.455 -11.582  1.00  0.00     0.079 C 
BRANCH  10  11
HETATM   11  C   LIG     1     -21.232 -16.038 -12.903  1.00  0.00     0.008 C 
BRANCH  11  12
HETATM   12  C   LIG     1     -20.130 -16.682 -13.752  1.00  0.00     0.002 C 
BRANCH  12  13
HETATM   13  C   LIG     1     -19.316 -17.688 -12.931  1.00  0.00     0.020 C 
BRANCH  13  14
HETATM   14  C   LIG     1     -19.374 -19.097 -13.509  1.00  0.00     0.122 C 
BRANCH  14  15
HETATM   15  N   LIG     1     -19.149 -20.108 -12.513  1.00  0.00    -0.361 N 
HETATM   16  C   LIG     1     -19.503 -21.441 -12.680  1.00  0.00     0.213 C 
HETATM   17  O   LIG     1     -20.042 -21.918 -13.675  1.00  0.00    -0.274 OA
HETATM   18  C   LIG     1     -19.130 -22.291 -11.495  1.00  0.00     0.117 C 
HETATM   19  H   LIG     1     -18.695 -19.826 -11.649  1.00  0.00     0.162 HD
ENDBRANCH  14  15
ENDBRANCH  13  14
ENDBRANCH  12  13
ENDBRANCH  11  12
ENDBRANCH  10  11
ENDBRANCH   3  10
BRANCH   1  20
HETATM   20  C   LIG     1     -19.562 -16.621  -9.038  1.00  0.00     0.156 C 
BRANCH  20  21
HETATM   21  C   LIG     1     -19.078 -17.925  -9.658  1.00  0.00     0.187 C 
BRANCH  21  22
HETATM   22  O   LIG     1     -18.515 -18.754  -8.650  1.00  0.00    -0.390 OA
BRANCH  22  23
HETATM   23  C   LIG     1     -18.990 -20.090  -8.750  1.00  0.00     0.163 C 
HETATM   24  C   LIG     1     -19.666 -20.471  -7.451  1.00  0.00     0.033 C 
ENDBRANCH  22  23
ENDBRANCH  21  22
ENDBRANCH  20  21
ENDBRANCH   1  20
TORSDOF 10
ENDMDL
MODEL 8
REMARK VINA RESULT:      -7.2      2.403      4.200
REMARK  10 active torsions:
REMARK  status: ('A' for Active; 'I' for Inactive)
REMARK    1  A    between atoms: O_1  and  C_15 
REMARK    2  A    between atoms: O_1  and  C_20 
REMARK    3  A    between atoms: N_3  and  C_11 
REMARK    4  A    between atoms: N_5  and  C_14 
REMARK       I    between atoms: N_5  and  C_21 
REMARK    5  A    between atoms: C_6  and  C_7 
REMARK    6  A    between atoms: C_6  and  C_8 
REMARK    7  A    between atoms: C_7  and  C_9 
REMARK    8  A    between atoms: C_9  and  C_12 
REMARK    9  A    between atoms: C_11  and  C_15 
REMARK   10  A    between atoms: C_12  and  C_14 
ROOT
HETATM    1  N   LIG     1     -21.217 -16.717  -9.444  1.00  0.00    -0.331 N 
HETATM    2  N   LIG     1     -23.206 -16.035 -10.167  1.00  0.00    -0.233 NA
HETATM    3  C   LIG     1     -21.937 -16.181 -10.476  1.00  0.00     0.107 A 
HETATM    4  C   LIG     1     -22.079 -16.930  -8.399  1.00  0.00     0.065 A 
HETATM    5  C   LIG     1     -23.314 -16.497  -8.875  1.00  0.00     0.085 A 
HETATM    6  C   LIG     1     -21.891 -17.449  -7.117  1.00  0.00     0.032 A 
HETATM    7  C   LIG     1     -24.438 -16.580  -8.037  1.00  0.00     0.034 A 
HETATM    8  C   LIG     1     -23.020 -17.524  -6.297  1.00  0.00     0.002 A 
HETATM    9  C   LIG     1     -24.272 -17.098  -6.746  1.00  0.00     0.002 A 
ENDROOT
BRANCH   3  10
HETATM   10  C   LIG     1     -21.300 -15.817 -11.794  1.00  0.00     0.079 C 
BRANCH  10  11
HETATM   11  C   LIG     1     -22.322 -15.520 -12.897  1.00  0.00     0.008 C 
BRANCH  11  12
HETATM   12  C   LIG     1     -21.911 -14.356 -13.806  1.00  0.00     0.002 C 
BRANCH  12  13
HETATM   13  C   LIG     1     -22.415 -13.018 -13.254  1.00  0.00     0.020 C 
BRANCH  13  14
HETATM   14  C   LIG     1     -23.695 -12.549 -13.936  1.00  0.00     0.122 C 
BRANCH  14  15
HETATM   15  N   LIG     1     -23.535 -12.391 -15.355  1.00  0.00    -0.361 N 
HETATM   16  C   LIG     1     -24.324 -13.046 -16.293  1.00  0.00     0.213 C 
HETATM   17  O   LIG     1     -25.237 -13.826 -16.038  1.00  0.00    -0.274 OA
HETATM   18  C   LIG     1     -23.962 -12.681 -17.707  1.00  0.00     0.117 C 
HETATM   19  H   LIG     1     -22.812 -11.756 -15.680  1.00  0.00     0.162 HD
ENDBRANCH  14  15
ENDBRANCH  13  14
ENDBRANCH  12  13
ENDBRANCH  11  12
ENDBRANCH  10  11
ENDBRANCH   3  10
BRANCH   1  20
HETATM   20  C   LIG     1     -19.802 -17.007  -9.448  1.00  0.00     0.156 C 
BRANCH  20  21
HETATM   21  C   LIG     1     -19.501 -18.442  -9.859  1.00  0.00     0.187 C 
BRANCH  21  22
HETATM   22  O   LIG     1     -18.837 -19.115  -8.797  1.00  0.00    -0.390 OA
BRANCH  22  23
HETATM   23  C   LIG     1     -18.986 -20.524  -8.899  1.00  0.00     0.163 C 
HETATM   24  C   LIG     1     -18.996 -20.914 -10.362  1.00  0.00     0.033 C 
ENDBRANCH  22  23
ENDBRANCH  21  22
ENDBRANCH  20  21
ENDBRANCH   1  20
TORSDOF 10
ENDMDL
MODEL 9
REMARK VINA RESULT:      -7.2      3.046      4.660
REMARK  10 active torsions:
REMARK  status: ('A' for Active; 'I' for Inactive)
REMARK    1  A    between atoms: O_1  and  C_15 
REMARK    2  A    between atoms: O_1  and  C_20 
REMARK    3  A    between atoms: N_3  and  C_11 
REMARK    4  A    between atoms: N_5  and  C_14 
REMARK       I    between atoms: N_5  and  C_21 
REMARK    5  A    between atoms: C_6  and  C_7 
REMARK    6  A    between atoms: C_6  and  C_8 
REMARK    7  A    between atoms: C_7  and  C_9 
REMARK    8  A    between atoms: C_9  and  C_12 
REMARK    9  A    between atoms: C_11  and  C_15 
REMARK   10  A    between atoms: C_12  and  C_14 
ROOT
HETATM    1  N   LIG     1     -21.141 -16.508  -9.738  1.00  0.00    -0.331 N 
HETATM    2  N   LIG     1     -23.203 -15.984 -10.380  1.00  0.00    -0.233 NA
HETATM    3  C   LIG     1     -21.939 -16.023 -10.736  1.00  0.00     0.107 A 
HETATM    4  C   LIG     1     -21.944 -16.801  -8.665  1.00  0.00     0.065 A 
HETATM    5  C   LIG     1     -23.226 -16.466  -9.091  1.00  0.00     0.085 A 
HETATM    6  C   LIG     1     -21.667 -17.316  -7.398  1.00  0.00     0.032 A 
HETATM    7  C   LIG     1     -24.308 -16.647  -8.214  1.00  0.00     0.034 A 
HETATM    8  C   LIG     1     -22.756 -17.491  -6.538  1.00  0.00     0.002 A 
HETATM    9  C   LIG     1     -24.053 -17.163  -6.936  1.00  0.00     0.002 A 
ENDROOT
BRANCH   3  10
HETATM   10  C   LIG     1     -21.383 -15.595 -12.072  1.00  0.00     0.079 C 
BRANCH  10  11
HETATM   11  C   LIG     1     -21.697 -16.582 -13.202  1.00  0.00     0.008 C 
BRANCH  11  12
HETATM   12  C   LIG     1     -22.985 -16.243 -13.960  1.00  0.00     0.002 C 
BRANCH  12  13
HETATM   13  C   LIG     1     -23.369 -17.368 -14.928  1.00  0.00     0.020 C 
BRANCH  13  14
HETATM   14  C   LIG     1     -22.401 -18.545 -14.870  1.00  0.00     0.122 C 
BRANCH  14  15
HETATM   15  N   LIG     1     -23.048 -19.800 -15.136  1.00  0.00    -0.361 N 
HETATM   16  C   LIG     1     -22.458 -21.034 -14.888  1.00  0.00     0.213 C 
HETATM   17  O   LIG     1     -21.335 -21.208 -14.422  1.00  0.00    -0.274 OA
HETATM   18  C   LIG     1     -23.364 -22.186 -15.231  1.00  0.00     0.117 C 
HETATM   19  H   LIG     1     -23.991 -19.774 -15.513  1.00  0.00     0.162 HD
ENDBRANCH  14  15
ENDBRANCH  13  14
ENDBRANCH  12  13
ENDBRANCH  11  12
ENDBRANCH  10  11
ENDBRANCH   3  10
BRANCH   1  20
HETATM   20  C   LIG     1     -19.708 -16.682  -9.797  1.00  0.00     0.156 C 
BRANCH  20  21
HETATM   21  C   LIG     1     -19.307 -18.096 -10.198  1.00  0.00     0.187 C 
BRANCH  21  22
HETATM   22  O   LIG     1     -18.647 -18.733  -9.112  1.00  0.00    -0.390 OA
BRANCH  22  23
HETATM   23  C   LIG     1     -19.014 -20.102  -9.010  1.00  0.00     0.163 C 
HETATM   24  C   LIG     1     -19.262 -20.439  -7.555  1.00  0.00     0.033 C 
ENDBRANCH  22  23
ENDBRANCH  21  22
ENDBRANCH  20  21
ENDBRANCH   1  20
TORSDOF 10
ENDMDL
