MODEL 1
REMARK VINA RESULT:      -7.9      0.000      0.000
REMARK  10 active torsions:
REMARK  status: ('A' for Active; 'I' for Inactive)
REMARK    1  A    between atoms: O_1  and  C_15 
REMARK    2  A    between atoms: O_1  and  C_20 
REMARK    3  A    between atoms: N_3  and  C_11 
REMARK    4  A    between atoms: N_5  and  C_14 
REMARK       I    between atoms: N_5  and  C_21 
REMARK    5  A    between atoms: C_6  and  C_7 
REMARK    6  A    between atoms: C_6  and  C_8 
REMARK    7  A    between atoms: C_7  and  C_9 
REMARK    8  A    between atoms: C_9  and  C_12 
REMARK    9  A    between atoms: C_11  and  C_15 
REMARK   10  A    between atoms: C_12  and  C_14 
ROOT
HETATM    1  N   LIG     1     -23.743 -21.280 -15.200  1.00  0.00    -0.331 N 
HETATM    2  N   LIG     1     -22.845 -23.185 -14.490  1.00  0.00    -0.233 NA
HETATM    3  C   LIG     1     -22.771 -21.874 -14.444  1.00  0.00     0.107 A 
HETATM    4  C   LIG     1     -24.493 -22.274 -15.773  1.00  0.00     0.065 A 
HETATM    5  C   LIG     1     -23.913 -23.454 -15.315  1.00  0.00     0.085 A 
HETATM    6  C   LIG     1     -25.597 -22.244 -16.627  1.00  0.00     0.032 A 
HETATM    7  C   LIG     1     -24.452 -24.685 -15.723  1.00  0.00     0.034 A 
HETATM    8  C   LIG     1     -26.121 -23.478 -17.023  1.00  0.00     0.002 A 
HETATM    9  C   LIG     1     -25.560 -24.678 -16.580  1.00  0.00     0.002 A 
ENDROOT
BRANCH   3  10
HETATM   10  C   LIG     1     -21.756 -21.072 -13.667  1.00  0.00     0.079 C 
BRANCH  10  11
HETATM   11  C   LIG     1     -20.362 -21.710 -13.657  1.00  0.00     0.008 C 
BRANCH  11  12
HETATM   12  C   LIG     1     -19.426 -21.102 -12.607  1.00  0.00     0.002 C 
BRANCH  12  13
HETATM   13  C   LIG     1     -19.231 -19.601 -12.843  1.00  0.00     0.020 C 
BRANCH  13  14
HETATM   14  C   LIG     1     -19.298 -18.792 -11.552  1.00  0.00     0.122 C 
BRANCH  14  15
HETATM   15  N   LIG     1     -19.073 -19.601 -10.385  1.00  0.00    -0.361 N 
HETATM   16  C   LIG     1     -19.297 -19.156  -9.089  1.00  0.00     0.213 C 
HETATM   17  O   LIG     1     -19.706 -18.040  -8.778  1.00  0.00    -0.274 OA
HETATM   18  C   LIG     1     -19.007 -20.212  -8.057  1.00  0.00     0.117 C 
HETATM   19  H   LIG     1     -18.744 -20.552 -10.527  1.00  0.00     0.162 HD
ENDBRANCH  14  15
ENDBRANCH  13  14
ENDBRANCH  12  13
ENDBRANCH  11  12
ENDBRANCH  10  11
ENDBRANCH   3  10
BRANCH   1  20
HETATM   20  C   LIG     1     -23.946 -19.859 -15.368  1.00  0.00     0.156 C 
BRANCH  20  21
HETATM   21  C   LIG     1     -24.930 -19.286 -14.356  1.00  0.00     0.187 C 
BRANCH  21  22
HETATM   22  O   LIG     1     -24.416 -18.071 -13.825  1.00  0.00    -0.390 OA
BRANCH  22  23
HETATM   23  C   LIG     1     -23.886 -18.257 -12.520  1.00  0.00     0.163 C 
HETATM   24  C   LIG     1     -24.975 -18.796 -11.618  1.00  0.00     0.033 C 
ENDBRANCH  22  23
ENDBRANCH  21  22
ENDBRANCH  20  21
ENDBRANCH   1  20
TORSDOF 10
ENDMDL
MODEL 2
REMARK VINA RESULT:      -7.6      2.879      7.349
REMARK  10 active torsions:
REMARK  status: ('A' for Active; 'I' for Inactive)
REMARK    1  A    between atoms: O_1  and  C_15 
REMARK    2  A    between atoms: O_1  and  C_20 
REMARK    3  A    between atoms: N_3  and  C_11 
REMARK    4  A    between atoms: N_5  and  C_14 
REMARK       I    between atoms: N_5  and  C_21 
REMARK    5  A    between atoms: C_6  and  C_7 
REMARK    6  A    between atoms: C_6  and  C_8 
REMARK    7  A    between atoms: C_7  and  C_9 
REMARK    8  A    between atoms: C_9  and  C_12 
REMARK    9  A    between atoms: C_11  and  C_15 
REMARK   10  A    between atoms: C_12  and  C_14 
ROOT
HETATM    1  N   LIG     1     -21.499 -17.563 -10.513  1.00  0.00    -0.331 N 
HETATM    2  N   LIG     1     -20.413 -18.201  -8.681  1.00  0.00    -0.233 NA
HETATM    3  C   LIG     1     -20.348 -18.081  -9.988  1.00  0.00     0.107 A 
HETATM    4  C   LIG     1     -22.366 -17.333  -9.475  1.00  0.00     0.065 A 
HETATM    5  C   LIG     1     -21.665 -17.739  -8.343  1.00  0.00     0.085 A 
HETATM    6  C   LIG     1     -23.663 -16.820  -9.431  1.00  0.00     0.032 A 
HETATM    7  C   LIG     1     -22.279 -17.634  -7.083  1.00  0.00     0.034 A 
HETATM    8  C   LIG     1     -24.258 -16.722  -8.169  1.00  0.00     0.002 A 
HETATM    9  C   LIG     1     -23.581 -17.122  -7.015  1.00  0.00     0.002 A 
ENDROOT
BRANCH   3  10
HETATM   10  C   LIG     1     -19.170 -18.457 -10.853  1.00  0.00     0.079 C 
BRANCH  10  11
HETATM   11  C   LIG     1     -19.237 -19.898 -11.372  1.00  0.00     0.008 C 
BRANCH  11  12
HETATM   12  C   LIG     1     -19.278 -19.988 -12.901  1.00  0.00     0.002 C 
BRANCH  12  13
HETATM   13  C   LIG     1     -20.001 -21.259 -13.361  1.00  0.00     0.020 C 
BRANCH  13  14
HETATM   14  C   LIG     1     -21.479 -21.019 -13.648  1.00  0.00     0.122 C 
BRANCH  14  15
HETATM   15  N   LIG     1     -22.160 -22.217 -14.059  1.00  0.00    -0.361 N 
HETATM   16  C   LIG     1     -23.285 -22.217 -14.873  1.00  0.00     0.213 C 
HETATM   17  O   LIG     1     -23.833 -21.219 -15.335  1.00  0.00    -0.274 OA
HETATM   18  C   LIG     1     -23.781 -23.606 -15.172  1.00  0.00     0.117 C 
HETATM   19  H   LIG     1     -21.782 -23.105 -13.743  1.00  0.00     0.162 HD
ENDBRANCH  14  15
ENDBRANCH  13  14
ENDBRANCH  12  13
ENDBRANCH  11  12
ENDBRANCH  10  11
ENDBRANCH   3  10
BRANCH   1  20
HETATM   20  C   LIG     1     -21.761 -17.302 -11.910  1.00  0.00     0.156 C 
BRANCH  20  21
HETATM   21  C   LIG     1     -21.580 -15.834 -12.275  1.00  0.00     0.187 C 
BRANCH  21  22
HETATM   22  O   LIG     1     -20.197 -15.550 -12.439  1.00  0.00    -0.390 OA
BRANCH  22  23
HETATM   23  C   LIG     1     -19.829 -15.530 -13.812  1.00  0.00     0.163 C 
HETATM   24  C   LIG     1     -18.637 -16.439 -14.016  1.00  0.00     0.033 C 
ENDBRANCH  22  23
ENDBRANCH  21  22
ENDBRANCH  20  21
ENDBRANCH   1  20
TORSDOF 10
ENDMDL
MODEL 3
REMARK VINA RESULT:      -7.6      3.405      7.524
REMARK  10 active torsions:
REMARK  status: ('A' for Active; 'I' for Inactive)
REMARK    1  A    between atoms: O_1  and  C_15 
REMARK    2  A    between atoms: O_1  and  C_20 
REMARK    3  A    between atoms: N_3  and  C_11 
REMARK    4  A    between atoms: N_5  and  C_14 
REMARK       I    between atoms: N_5  and  C_21 
REMARK    5  A    between atoms: C_6  and  C_7 
REMARK    6  A    between atoms: C_6  and  C_8 
REMARK    7  A    between atoms: C_7  and  C_9 
REMARK    8  A    between atoms: C_9  and  C_12 
REMARK    9  A    between atoms: C_11  and  C_15 
REMARK   10  A    between atoms: C_12  and  C_14 
ROOT
HETATM    1  N   LIG     1     -21.749 -17.069  -9.965  1.00  0.00    -0.331 N 
HETATM    2  N   LIG     1     -20.672 -17.947  -8.231  1.00  0.00    -0.233 NA
HETATM    3  C   LIG     1     -20.594 -17.638  -9.505  1.00  0.00     0.107 A 
HETATM    4  C   LIG     1     -22.631 -17.007  -8.917  1.00  0.00     0.065 A 
HETATM    5  C   LIG     1     -21.935 -17.561  -7.846  1.00  0.00     0.085 A 
HETATM    6  C   LIG     1     -23.938 -16.528  -8.817  1.00  0.00     0.032 A 
HETATM    7  C   LIG     1     -22.565 -17.651  -6.593  1.00  0.00     0.034 A 
HETATM    8  C   LIG     1     -24.550 -16.625  -7.563  1.00  0.00     0.002 A 
HETATM    9  C   LIG     1     -23.877 -17.176  -6.470  1.00  0.00     0.002 A 
ENDROOT
BRANCH   3  10
HETATM   10  C   LIG     1     -19.400 -17.864 -10.399  1.00  0.00     0.079 C 
BRANCH  10  11
HETATM   11  C   LIG     1     -19.249 -19.322 -10.849  1.00  0.00     0.008 C 
BRANCH  11  12
HETATM   12  C   LIG     1     -19.320 -19.497 -12.369  1.00  0.00     0.002 C 
BRANCH  12  13
HETATM   13  C   LIG     1     -19.579 -20.960 -12.747  1.00  0.00     0.020 C 
BRANCH  13  14
HETATM   14  C   LIG     1     -19.890 -21.135 -14.229  1.00  0.00     0.122 C 
BRANCH  14  15
HETATM   15  N   LIG     1     -21.202 -21.677 -14.454  1.00  0.00    -0.361 N 
HETATM   16  C   LIG     1     -22.323 -20.894 -14.699  1.00  0.00     0.213 C 
HETATM   17  O   LIG     1     -22.339 -19.667 -14.754  1.00  0.00    -0.274 OA
HETATM   18  C   LIG     1     -23.563 -21.716 -14.926  1.00  0.00     0.117 C 
HETATM   19  H   LIG     1     -21.302 -22.688 -14.443  1.00  0.00     0.162 HD
ENDBRANCH  14  15
ENDBRANCH  13  14
ENDBRANCH  12  13
ENDBRANCH  11  12
ENDBRANCH  10  11
ENDBRANCH   3  10
BRANCH   1  20
HETATM   20  C   LIG     1     -22.000 -16.613 -11.313  1.00  0.00     0.156 C 
BRANCH  20  21
HETATM   21  C   LIG     1     -22.053 -15.094 -11.416  1.00  0.00     0.187 C 
BRANCH  21  22
HETATM   22  O   LIG     1     -20.871 -14.536 -10.858  1.00  0.00    -0.390 OA
BRANCH  22  23
HETATM   23  C   LIG     1     -21.156 -13.374 -10.091  1.00  0.00     0.163 C 
HETATM   24  C   LIG     1     -21.168 -13.744  -8.623  1.00  0.00     0.033 C 
ENDBRANCH  22  23
ENDBRANCH  21  22
ENDBRANCH  20  21
ENDBRANCH   1  20
TORSDOF 10
ENDMDL
MODEL 4
REMARK VINA RESULT:      -7.5      5.581      7.877
REMARK  10 active torsions:
REMARK  status: ('A' for Active; 'I' for Inactive)
REMARK    1  A    between atoms: O_1  and  C_15 
REMARK    2  A    between atoms: O_1  and  C_20 
REMARK    3  A    between atoms: N_3  and  C_11 
REMARK    4  A    between atoms: N_5  and  C_14 
REMARK       I    between atoms: N_5  and  C_21 
REMARK    5  A    between atoms: C_6  and  C_7 
REMARK    6  A    between atoms: C_6  and  C_8 
REMARK    7  A    between atoms: C_7  and  C_9 
REMARK    8  A    between atoms: C_9  and  C_12 
REMARK    9  A    between atoms: C_11  and  C_15 
REMARK   10  A    between atoms: C_12  and  C_14 
ROOT
HETATM    1  N   LIG     1     -21.843 -16.578 -10.034  1.00  0.00    -0.331 N 
HETATM    2  N   LIG     1     -20.601 -17.603  -8.502  1.00  0.00    -0.233 NA
HETATM    3  C   LIG     1     -20.629 -17.124  -9.726  1.00  0.00     0.107 A 
HETATM    4  C   LIG     1     -22.655 -16.714  -8.938  1.00  0.00     0.065 A 
HETATM    5  C   LIG     1     -21.857 -17.356  -7.995  1.00  0.00     0.085 A 
HETATM    6  C   LIG     1     -23.977 -16.341  -8.696  1.00  0.00     0.032 A 
HETATM    7  C   LIG     1     -22.394 -17.653  -6.731  1.00  0.00     0.034 A 
HETATM    8  C   LIG     1     -24.496 -16.643  -7.433  1.00  0.00     0.002 A 
HETATM    9  C   LIG     1     -23.720 -17.287  -6.467  1.00  0.00     0.002 A 
ENDROOT
BRANCH   3  10
HETATM   10  C   LIG     1     -19.486 -17.150 -10.711  1.00  0.00     0.079 C 
BRANCH  10  11
HETATM   11  C   LIG     1     -19.318 -18.507 -11.405  1.00  0.00     0.008 C 
BRANCH  11  12
HETATM   12  C   LIG     1     -19.085 -18.389 -12.915  1.00  0.00     0.002 C 
BRANCH  12  13
HETATM   13  C   LIG     1     -19.344 -16.960 -13.405  1.00  0.00     0.020 C 
BRANCH  13  14
HETATM   14  C   LIG     1     -20.523 -16.877 -14.369  1.00  0.00     0.122 C 
BRANCH  14  15
HETATM   15  N   LIG     1     -20.597 -15.607 -15.037  1.00  0.00    -0.361 N 
HETATM   16  C   LIG     1     -21.764 -14.859 -15.133  1.00  0.00     0.213 C 
HETATM   17  O   LIG     1     -22.857 -15.178 -14.672  1.00  0.00    -0.274 OA
HETATM   18  C   LIG     1     -21.557 -13.558 -15.860  1.00  0.00     0.117 C 
HETATM   19  H   LIG     1     -19.744 -15.239 -15.446  1.00  0.00     0.162 HD
ENDBRANCH  14  15
ENDBRANCH  13  14
ENDBRANCH  12  13
ENDBRANCH  11  12
ENDBRANCH  10  11
ENDBRANCH   3  10
BRANCH   1  20
HETATM   20  C   LIG     1     -22.211 -15.967 -11.291  1.00  0.00     0.156 C 
BRANCH  20  21
HETATM   21  C   LIG     1     -22.306 -14.449 -11.197  1.00  0.00     0.187 C 
BRANCH  21  22
HETATM   22  O   LIG     1     -21.119 -13.931 -10.612  1.00  0.00    -0.390 OA
BRANCH  22  23
HETATM   23  C   LIG     1     -21.403 -13.154  -9.457  1.00  0.00     0.163 C 
HETATM   24  C   LIG     1     -22.829 -12.654  -9.537  1.00  0.00     0.033 C 
ENDBRANCH  22  23
ENDBRANCH  21  22
ENDBRANCH  20  21
ENDBRANCH   1  20
TORSDOF 10
ENDMDL
MODEL 5
REMARK VINA RESULT:      -7.4      2.156      2.696
REMARK  10 active torsions:
REMARK  status: ('A' for Active; 'I' for Inactive)
REMARK    1  A    between atoms: O_1  and  C_15 
REMARK    2  A    between atoms: O_1  and  C_20 
REMARK    3  A    between atoms: N_3  and  C_11 
REMARK    4  A    between atoms: N_5  and  C_14 
REMARK       I    between atoms: N_5  and  C_21 
REMARK    5  A    between atoms: C_6  and  C_7 
REMARK    6  A    between atoms: C_6  and  C_8 
REMARK    7  A    between atoms: C_7  and  C_9 
REMARK    8  A    between atoms: C_9  and  C_12 
REMARK    9  A    between atoms: C_11  and  C_15 
REMARK   10  A    between atoms: C_12  and  C_14 
ROOT
HETATM    1  N   LIG     1     -23.572 -20.639 -15.086  1.00  0.00    -0.331 N 
HETATM    2  N   LIG     1     -22.288 -22.285 -14.322  1.00  0.00    -0.233 NA
HETATM    3  C   LIG     1     -22.407 -20.984 -14.458  1.00  0.00     0.107 A 
HETATM    4  C   LIG     1     -24.250 -21.796 -15.375  1.00  0.00     0.065 A 
HETATM    5  C   LIG     1     -23.428 -22.809 -14.888  1.00  0.00     0.085 A 
HETATM    6  C   LIG     1     -25.474 -22.036 -16.001  1.00  0.00     0.032 A 
HETATM    7  C   LIG     1     -23.836 -24.146 -15.026  1.00  0.00     0.034 A 
HETATM    8  C   LIG     1     -25.864 -23.372 -16.129  1.00  0.00     0.002 A 
HETATM    9  C   LIG     1     -25.061 -24.410 -15.651  1.00  0.00     0.002 A 
ENDROOT
BRANCH   3  10
HETATM   10  C   LIG     1     -21.409 -19.951 -13.997  1.00  0.00     0.079 C 
BRANCH  10  11
HETATM   11  C   LIG     1     -20.031 -20.544 -13.676  1.00  0.00     0.008 C 
BRANCH  11  12
HETATM   12  C   LIG     1     -19.230 -19.705 -12.674  1.00  0.00     0.002 C 
BRANCH  12  13
HETATM   13  C   LIG     1     -19.083 -18.258 -13.156  1.00  0.00     0.020 C 
BRANCH  13  14
HETATM   14  C   LIG     1     -19.039 -17.260 -12.005  1.00  0.00     0.122 C 
BRANCH  14  15
HETATM   15  N   LIG     1     -18.305 -16.070 -12.338  1.00  0.00    -0.361 N 
HETATM   16  C   LIG     1     -18.861 -14.989 -13.010  1.00  0.00     0.213 C 
HETATM   17  O   LIG     1     -20.024 -14.912 -13.399  1.00  0.00    -0.274 OA
HETATM   18  C   LIG     1     -17.881 -13.865 -13.207  1.00  0.00     0.117 C 
HETATM   19  H   LIG     1     -17.332 -16.021 -12.052  1.00  0.00     0.162 HD
ENDBRANCH  14  15
ENDBRANCH  13  14
ENDBRANCH  12  13
ENDBRANCH  11  12
ENDBRANCH  10  11
ENDBRANCH   3  10
BRANCH   1  20
HETATM   20  C   LIG     1     -24.014 -19.298 -15.393  1.00  0.00     0.156 C 
BRANCH  20  21
HETATM   21  C   LIG     1     -24.921 -18.721 -14.314  1.00  0.00     0.187 C 
BRANCH  21  22
HETATM   22  O   LIG     1     -24.269 -17.632 -13.673  1.00  0.00    -0.390 OA
BRANCH  22  23
HETATM   23  C   LIG     1     -23.983 -17.925 -12.312  1.00  0.00     0.163 C 
HETATM   24  C   LIG     1     -24.981 -18.945 -11.806  1.00  0.00     0.033 C 
ENDBRANCH  22  23
ENDBRANCH  21  22
ENDBRANCH  20  21
ENDBRANCH   1  20
TORSDOF 10
ENDMDL
MODEL 6
REMARK VINA RESULT:      -7.4      3.905      6.962
REMARK  10 active torsions:
REMARK  status: ('A' for Active; 'I' for Inactive)
REMARK    1  A    between atoms: O_1  and  C_15 
REMARK    2  A    between atoms: O_1  and  C_20 
REMARK    3  A    between atoms: N_3  and  C_11 
REMARK    4  A    between atoms: N_5  and  C_14 
REMARK       I    between atoms: N_5  and  C_21 
REMARK    5  A    between atoms: C_6  and  C_7 
REMARK    6  A    between atoms: C_6  and  C_8 
REMARK    7  A    between atoms: C_7  and  C_9 
REMARK    8  A    between atoms: C_9  and  C_12 
REMARK    9  A    between atoms: C_11  and  C_15 
REMARK   10  A    between atoms: C_12  and  C_14 
ROOT
HETATM    1  N   LIG     1     -21.978 -17.926 -10.270  1.00  0.00    -0.331 N 
HETATM    2  N   LIG     1     -20.729 -18.273  -8.464  1.00  0.00    -0.233 NA
HETATM    3  C   LIG     1     -20.779 -18.355  -9.775  1.00  0.00     0.107 A 
HETATM    4  C   LIG     1     -22.756 -17.541  -9.208  1.00  0.00     0.065 A 
HETATM    5  C   LIG     1     -21.954 -17.767  -8.092  1.00  0.00     0.085 A 
HETATM    6  C   LIG     1     -24.052 -17.030  -9.129  1.00  0.00     0.032 A 
HETATM    7  C   LIG     1     -22.459 -17.471  -6.815  1.00  0.00     0.034 A 
HETATM    8  C   LIG     1     -24.538 -16.741  -7.850  1.00  0.00     0.002 A 
HETATM    9  C   LIG     1     -23.758 -16.957  -6.713  1.00  0.00     0.002 A 
ENDROOT
BRANCH   3  10
HETATM   10  C   LIG     1     -19.674 -18.857 -10.671  1.00  0.00     0.079 C 
BRANCH  10  11
HETATM   11  C   LIG     1     -18.656 -17.772 -11.041  1.00  0.00     0.008 C 
BRANCH  11  12
HETATM   12  C   LIG     1     -18.835 -17.234 -12.465  1.00  0.00     0.002 C 
BRANCH  12  13
HETATM   13  C   LIG     1     -18.797 -15.702 -12.486  1.00  0.00     0.020 C 
BRANCH  13  14
HETATM   14  C   LIG     1     -20.180 -15.080 -12.330  1.00  0.00     0.122 C 
BRANCH  14  15
HETATM   15  N   LIG     1     -20.477 -14.737 -10.967  1.00  0.00    -0.361 N 
HETATM   16  C   LIG     1     -21.713 -14.259 -10.548  1.00  0.00     0.213 C 
HETATM   17  O   LIG     1     -22.688 -14.072 -11.271  1.00  0.00    -0.274 OA
HETATM   18  C   LIG     1     -21.762 -14.004  -9.066  1.00  0.00     0.117 C 
HETATM   19  H   LIG     1     -19.742 -14.865 -10.277  1.00  0.00     0.162 HD
ENDBRANCH  14  15
ENDBRANCH  13  14
ENDBRANCH  12  13
ENDBRANCH  11  12
ENDBRANCH  10  11
ENDBRANCH   3  10
BRANCH   1  20
HETATM   20  C   LIG     1     -22.364 -17.884 -11.662  1.00  0.00     0.156 C 
BRANCH  20  21
HETATM   21  C   LIG     1     -22.957 -19.201 -12.144  1.00  0.00     0.187 C 
BRANCH  21  22
HETATM   22  O   LIG     1     -22.402 -19.541 -13.408  1.00  0.00    -0.390 OA
BRANCH  22  23
HETATM   23  C   LIG     1     -21.675 -20.761 -13.346  1.00  0.00     0.163 C 
HETATM   24  C   LIG     1     -20.299 -20.545 -13.939  1.00  0.00     0.033 C 
ENDBRANCH  22  23
ENDBRANCH  21  22
ENDBRANCH  20  21
ENDBRANCH   1  20
TORSDOF 10
ENDMDL
MODEL 7
REMARK VINA RESULT:      -7.3      3.653      7.889
REMARK  10 active torsions:
REMARK  status: ('A' for Active; 'I' for Inactive)
REMARK    1  A    between atoms: O_1  and  C_15 
REMARK    2  A    between atoms: O_1  and  C_20 
REMARK    3  A    between atoms: N_3  and  C_11 
REMARK    4  A    between atoms: N_5  and  C_14 
REMARK       I    between atoms: N_5  and  C_21 
REMARK    5  A    between atoms: C_6  and  C_7 
REMARK    6  A    between atoms: C_6  and  C_8 
REMARK    7  A    between atoms: C_7  and  C_9 
REMARK    8  A    between atoms: C_9  and  C_12 
REMARK    9  A    between atoms: C_11  and  C_15 
REMARK   10  A    between atoms: C_12  and  C_14 
ROOT
HETATM    1  N   LIG     1     -21.156 -16.318  -9.310  1.00  0.00    -0.331 N 
HETATM    2  N   LIG     1     -23.107 -15.592 -10.089  1.00  0.00    -0.233 NA
HETATM    3  C   LIG     1     -21.819 -15.694 -10.330  1.00  0.00     0.107 A 
HETATM    4  C   LIG     1     -22.077 -16.639  -8.346  1.00  0.00     0.065 A 
HETATM    5  C   LIG     1     -23.287 -16.176  -8.856  1.00  0.00     0.085 A 
HETATM    6  C   LIG     1     -21.960 -17.276  -7.110  1.00  0.00     0.032 A 
HETATM    7  C   LIG     1     -24.459 -16.349  -8.101  1.00  0.00     0.034 A 
HETATM    8  C   LIG     1     -23.136 -17.441  -6.373  1.00  0.00     0.002 A 
HETATM    9  C   LIG     1     -24.364 -16.987  -6.857  1.00  0.00     0.002 A 
ENDROOT
BRANCH   3  10
HETATM   10  C   LIG     1     -21.108 -15.198 -11.565  1.00  0.00     0.079 C 
BRANCH  10  11
HETATM   11  C   LIG     1     -21.886 -15.468 -12.859  1.00  0.00     0.008 C 
BRANCH  11  12
HETATM   12  C   LIG     1     -21.721 -16.900 -13.377  1.00  0.00     0.002 C 
BRANCH  12  13
HETATM   13  C   LIG     1     -22.986 -17.729 -13.124  1.00  0.00     0.020 C 
BRANCH  13  14
HETATM   14  C   LIG     1     -22.722 -18.944 -12.242  1.00  0.00     0.122 C 
BRANCH  14  15
HETATM   15  N   LIG     1     -21.407 -19.489 -12.438  1.00  0.00    -0.361 N 
HETATM   16  C   LIG     1     -21.152 -20.621 -13.203  1.00  0.00     0.213 C 
HETATM   17  O   LIG     1     -21.997 -21.287 -13.796  1.00  0.00    -0.274 OA
HETATM   18  C   LIG     1     -19.687 -20.959 -13.263  1.00  0.00     0.117 C 
HETATM   19  H   LIG     1     -20.628 -19.008 -12.000  1.00  0.00     0.162 HD
ENDBRANCH  14  15
ENDBRANCH  13  14
ENDBRANCH  12  13
ENDBRANCH  11  12
ENDBRANCH  10  11
ENDBRANCH   3  10
BRANCH   1  20
HETATM   20  C   LIG     1     -19.738 -16.591  -9.253  1.00  0.00     0.156 C 
BRANCH  20  21
HETATM   21  C   LIG     1     -19.315 -17.687 -10.224  1.00  0.00     0.187 C 
BRANCH  21  22
HETATM   22  O   LIG     1     -19.954 -18.908  -9.875  1.00  0.00    -0.390 OA
BRANCH  22  23
HETATM   23  C   LIG     1     -19.007 -19.923  -9.574  1.00  0.00     0.163 C 
HETATM   24  C   LIG     1     -18.993 -20.156  -8.078  1.00  0.00     0.033 C 
ENDBRANCH  22  23
ENDBRANCH  21  22
ENDBRANCH  20  21
ENDBRANCH   1  20
TORSDOF 10
ENDMDL
MODEL 8
REMARK VINA RESULT:      -7.3      6.529      9.152
REMARK  10 active torsions:
REMARK  status: ('A' for Active; 'I' for Inactive)
REMARK    1  A    between atoms: O_1  and  C_15 
REMARK    2  A    between atoms: O_1  and  C_20 
REMARK    3  A    between atoms: N_3  and  C_11 
REMARK    4  A    between atoms: N_5  and  C_14 
REMARK       I    between atoms: N_5  and  C_21 
REMARK    5  A    between atoms: C_6  and  C_7 
REMARK    6  A    between atoms: C_6  and  C_8 
REMARK    7  A    between atoms: C_7  and  C_9 
REMARK    8  A    between atoms: C_9  and  C_12 
REMARK    9  A    between atoms: C_11  and  C_15 
REMARK   10  A    between atoms: C_12  and  C_14 
ROOT
HETATM    1  N   LIG     1     -21.011 -16.239  -9.133  1.00  0.00    -0.331 N 
HETATM    2  N   LIG     1     -22.798 -15.239  -9.997  1.00  0.00    -0.233 NA
HETATM    3  C   LIG     1     -21.508 -15.452 -10.133  1.00  0.00     0.107 A 
HETATM    4  C   LIG     1     -22.048 -16.556  -8.294  1.00  0.00     0.065 A 
HETATM    5  C   LIG     1     -23.153 -15.920  -8.855  1.00  0.00     0.085 A 
HETATM    6  C   LIG     1     -22.114 -17.321  -7.128  1.00  0.00     0.032 A 
HETATM    7  C   LIG     1     -24.405 -16.043  -8.229  1.00  0.00     0.034 A 
HETATM    8  C   LIG     1     -23.368 -17.433  -6.519  1.00  0.00     0.002 A 
HETATM    9  C   LIG     1     -24.494 -16.807  -7.058  1.00  0.00     0.002 A 
ENDROOT
BRANCH   3  10
HETATM   10  C   LIG     1     -20.636 -14.914 -11.240  1.00  0.00     0.079 C 
BRANCH  10  11
HETATM   11  C   LIG     1     -21.427 -14.191 -12.337  1.00  0.00     0.008 C 
BRANCH  11  12
HETATM   12  C   LIG     1     -20.591 -13.168 -13.112  1.00  0.00     0.002 C 
BRANCH  12  13
HETATM   13  C   LIG     1     -20.503 -13.537 -14.597  1.00  0.00     0.020 C 
BRANCH  13  14
HETATM   14  C   LIG     1     -21.606 -14.498 -15.027  1.00  0.00     0.122 C 
BRANCH  14  15
HETATM   15  N   LIG     1     -22.326 -14.029 -16.179  1.00  0.00    -0.361 N 
HETATM   16  C   LIG     1     -23.350 -13.093 -16.113  1.00  0.00     0.213 C 
HETATM   17  O   LIG     1     -23.765 -12.558 -15.088  1.00  0.00    -0.274 OA
HETATM   18  C   LIG     1     -23.914 -12.759 -17.468  1.00  0.00     0.117 C 
HETATM   19  H   LIG     1     -22.055 -14.398 -17.086  1.00  0.00     0.162 HD
ENDBRANCH  14  15
ENDBRANCH  13  14
ENDBRANCH  12  13
ENDBRANCH  11  12
ENDBRANCH  10  11
ENDBRANCH   3  10
BRANCH   1  20
HETATM   20  C   LIG     1     -19.638 -16.664  -8.981  1.00  0.00     0.156 C 
BRANCH  20  21
HETATM   21  C   LIG     1     -19.324 -17.921  -9.783  1.00  0.00     0.187 C 
BRANCH  21  22
HETATM   22  O   LIG     1     -18.427 -18.744  -9.050  1.00  0.00    -0.390 OA
BRANCH  22  23
HETATM   23  C   LIG     1     -18.885 -20.088  -8.988  1.00  0.00     0.163 C 
HETATM   24  C   LIG     1     -19.350 -20.386  -7.579  1.00  0.00     0.033 C 
ENDBRANCH  22  23
ENDBRANCH  21  22
ENDBRANCH  20  21
ENDBRANCH   1  20
TORSDOF 10
ENDMDL
MODEL 9
REMARK VINA RESULT:      -7.2      2.691      6.061
REMARK  10 active torsions:
REMARK  status: ('A' for Active; 'I' for Inactive)
REMARK    1  A    between atoms: O_1  and  C_15 
REMARK    2  A    between atoms: O_1  and  C_20 
REMARK    3  A    between atoms: N_3  and  C_11 
REMARK    4  A    between atoms: N_5  and  C_14 
REMARK       I    between atoms: N_5  and  C_21 
REMARK    5  A    between atoms: C_6  and  C_7 
REMARK    6  A    between atoms: C_6  and  C_8 
REMARK    7  A    between atoms: C_7  and  C_9 
REMARK    8  A    between atoms: C_9  and  C_12 
REMARK    9  A    between atoms: C_11  and  C_15 
REMARK   10  A    between atoms: C_12  and  C_14 
ROOT
HETATM    1  N   LIG     1     -22.841 -17.687 -11.906  1.00  0.00    -0.331 N 
HETATM    2  N   LIG     1     -21.836 -15.706 -11.822  1.00  0.00    -0.233 NA
HETATM    3  C   LIG     1     -21.990 -16.810 -12.519  1.00  0.00     0.107 A 
HETATM    4  C   LIG     1     -23.263 -17.112 -10.735  1.00  0.00     0.065 A 
HETATM    5  C   LIG     1     -22.623 -15.876 -10.706  1.00  0.00     0.085 A 
HETATM    6  C   LIG     1     -24.125 -17.552  -9.729  1.00  0.00     0.032 A 
HETATM    7  C   LIG     1     -22.843 -15.016  -9.617  1.00  0.00     0.034 A 
HETATM    8  C   LIG     1     -24.334 -16.684  -8.654  1.00  0.00     0.002 A 
HETATM    9  C   LIG     1     -23.705 -15.438  -8.596  1.00  0.00     0.002 A 
ENDROOT
BRANCH   3  10
HETATM   10  C   LIG     1     -21.331 -17.121 -13.839  1.00  0.00     0.079 C 
BRANCH  10  11
HETATM   11  C   LIG     1     -19.829 -16.812 -13.853  1.00  0.00     0.008 C 
BRANCH  11  12
HETATM   12  C   LIG     1     -19.046 -17.569 -12.775  1.00  0.00     0.002 C 
BRANCH  12  13
HETATM   13  C   LIG     1     -19.173 -19.085 -12.962  1.00  0.00     0.020 C 
BRANCH  13  14
HETATM   14  C   LIG     1     -19.298 -19.828 -11.636  1.00  0.00     0.122 C 
BRANCH  14  15
HETATM   15  N   LIG     1     -20.001 -19.064 -10.643  1.00  0.00    -0.361 N 
HETATM   16  C   LIG     1     -19.622 -19.010  -9.308  1.00  0.00     0.213 C 
HETATM   17  O   LIG     1     -18.662 -19.595  -8.813  1.00  0.00    -0.274 OA
HETATM   18  C   LIG     1     -20.515 -18.117  -8.490  1.00  0.00     0.117 C 
HETATM   19  H   LIG     1     -20.809 -18.529 -10.945  1.00  0.00     0.162 HD
ENDBRANCH  14  15
ENDBRANCH  13  14
ENDBRANCH  12  13
ENDBRANCH  11  12
ENDBRANCH  10  11
ENDBRANCH   3  10
BRANCH   1  20
HETATM   20  C   LIG     1     -23.228 -18.989 -12.399  1.00  0.00     0.156 C 
BRANCH  20  21
HETATM   21  C   LIG     1     -24.498 -18.942 -13.239  1.00  0.00     0.187 C 
BRANCH  21  22
HETATM   22  O   LIG     1     -24.622 -20.145 -13.986  1.00  0.00    -0.390 OA
BRANCH  22  23
HETATM   23  C   LIG     1     -23.513 -20.336 -14.854  1.00  0.00     0.163 C 
HETATM   24  C   LIG     1     -23.229 -21.817 -14.974  1.00  0.00     0.033 C 
ENDBRANCH  22  23
ENDBRANCH  21  22
ENDBRANCH  20  21
ENDBRANCH   1  20
TORSDOF 10
ENDMDL
