MODEL 1
REMARK VINA RESULT:     -10.5      0.000      0.000
REMARK  1 active torsions:
REMARK  status: ('A' for Active; 'I' for Inactive)
REMARK    1  A    between atoms: C_7  and  C_14 
ROOT
HETATM    1  O   LIG     1     -20.078 -16.450 -11.055  1.00  0.00    -0.308 OA
HETATM    2  O   LIG     1     -17.657 -15.032 -14.000  1.00  0.00    -0.287 OA
HETATM    3  C   LIG     1     -20.186 -15.132 -11.439  1.00  0.00     0.101 A 
HETATM    4  C   LIG     1     -21.149 -14.333 -10.779  1.00  0.00     0.009 A 
HETATM    5  C   LIG     1     -19.380 -14.591 -12.441  1.00  0.00     0.049 A 
HETATM    6  C   LIG     1     -21.279 -12.973 -11.157  1.00  0.00    -0.023 A 
HETATM    7  C   LIG     1     -19.141 -17.258 -11.677  1.00  0.00     0.090 A 
HETATM    8  C   LIG     1     -19.511 -13.253 -12.809  1.00  0.00     0.019 A 
HETATM    9  C   LIG     1     -20.456 -12.452 -12.169  1.00  0.00     0.013 A 
HETATM   10  C   LIG     1     -18.389 -15.448 -13.111  1.00  0.00     0.187 A 
HETATM   11  C   LIG     1     -21.992 -14.827  -9.760  1.00  0.00     0.015 A 
HETATM   12  C   LIG     1     -18.321 -16.849 -12.655  1.00  0.00     0.093 A 
HETATM   13  C   LIG     1     -22.230 -12.161 -10.518  1.00  0.00     0.012 A 
HETATM   14  C   LIG     1     -22.932 -14.005  -9.135  1.00  0.00     0.001 A 
HETATM   15  C   LIG     1     -23.049 -12.673  -9.514  1.00  0.00     0.001 A 
ENDROOT
BRANCH   7  16
HETATM   16  C   LIG     1     -19.129 -18.650 -11.182  1.00  0.00    -0.002 A 
HETATM   17  C   LIG     1     -19.051 -18.909  -9.812  1.00  0.00     0.014 A 
HETATM   18  C   LIG     1     -19.040 -20.223  -9.346  1.00  0.00     0.001 A 
HETATM   19  C   LIG     1     -19.106 -21.284 -10.249  1.00  0.00     0.000 A 
HETATM   20  C   LIG     1     -19.184 -21.030 -11.618  1.00  0.00     0.001 A 
HETATM   21  C   LIG     1     -19.195 -19.715 -12.085  1.00  0.00     0.014 A 
ENDBRANCH   7  16
TORSDOF 1
ENDMDL
