MODEL 1
REMARK VINA RESULT:      -9.6      0.000      0.000
REMARK  1 active torsions:
REMARK  status: ('A' for Active; 'I' for Inactive)
REMARK    1  A    between atoms: C_7  and  C_21 
ROOT
HETATM    1  O   LIG     1     -23.779 -22.902 -15.713  1.00  0.00    -0.291 OA
HETATM    2  C   LIG     1     -23.459 -17.719 -10.107  1.00  0.00     0.000 C 
HETATM    3  C   LIG     1     -22.092 -17.055  -9.834  1.00  0.00     0.006 C 
HETATM    4  C   LIG     1     -23.682 -18.039 -11.589  1.00  0.00     0.001 C 
HETATM    5  C   LIG     1     -22.561 -19.014 -12.068  1.00  0.00     0.004 C 
HETATM    6  C   LIG     1     -22.724 -19.441 -13.577  1.00  0.00     0.016 C 
HETATM    7  C   LIG     1     -22.226 -16.825  -8.313  1.00  0.00     0.058 C 
HETATM    8  C   LIG     1     -20.999 -18.052 -10.241  1.00  0.00     0.000 C 
HETATM    9  C   LIG     1     -21.144 -18.485 -11.712  1.00  0.00     0.000 C 
HETATM   10  C   LIG     1     -24.446 -16.804  -9.390  1.00  0.00     0.000 C 
HETATM   11  C   LIG     1     -25.061 -18.669 -11.825  1.00  0.00     0.004 C 
HETATM   12  C   LIG     1     -23.686 -16.367  -8.123  1.00  0.00     0.007 C 
HETATM   13  C   LIG     1     -24.165 -19.904 -13.825  1.00  0.00    -0.042 C 
HETATM   14  C   LIG     1     -21.884 -15.714 -10.585  1.00  0.00     0.000 C 
HETATM   15  C   LIG     1     -25.265 -19.015 -13.294  1.00  0.00     0.022 C 
HETATM   16  C   LIG     1     -21.734 -20.607 -13.865  1.00  0.00     0.012 C 
HETATM   17  C   LIG     1     -22.419 -18.274 -14.544  1.00  0.00     0.004 C 
HETATM   18  C   LIG     1     -22.036 -21.360 -15.150  1.00  0.00     0.070 C 
HETATM   19  C   LIG     1     -24.490 -21.023 -14.497  1.00  0.00     0.029 C 
HETATM   20  C   LIG     1     -23.455 -21.863 -15.142  1.00  0.00     0.172 C 
ENDROOT
BRANCH   7  21
HETATM   21  C   LIG     1     -21.243 -15.847  -7.746  1.00  0.00     0.151 C 
HETATM   22  O   LIG     1     -20.030 -16.037  -7.818  1.00  0.00    -0.296 OA
HETATM   23  C   LIG     1     -21.814 -14.622  -7.086  1.00  0.00     0.072 C 
ENDBRANCH   7  21
TORSDOF 1
ENDMDL
