MODEL 1
REMARK VINA RESULT:      -9.1      0.000      0.000
REMARK  1 active torsions:
REMARK  status: ('A' for Active; 'I' for Inactive)
REMARK    1  A    between atoms: O_1  and  C_10 
ROOT
HETATM    1  O   LIG     1     -19.068 -21.790 -10.539  1.00  0.00    -0.293 OA
HETATM    2  C   LIG     1     -21.502 -15.076 -13.251  1.00  0.00     0.001 C 
HETATM    3  C   LIG     1     -21.506 -13.883 -12.277  1.00  0.00    -0.014 C 
HETATM    4  C   LIG     1     -20.344 -16.046 -12.994  1.00  0.00    -0.004 C 
HETATM    5  C   LIG     1     -20.467 -16.600 -11.539  1.00  0.00     0.002 C 
HETATM    6  C   LIG     1     -19.341 -17.647 -11.188  1.00  0.00    -0.016 C 
HETATM    7  C   LIG     1     -21.700 -14.430 -10.857  1.00  0.00     0.012 C 
HETATM    8  C   LIG     1     -20.615 -15.459 -10.495  1.00  0.00     0.007 C 
HETATM    9  C   LIG     1     -22.710 -13.104 -12.838  1.00  0.00     0.126 C 
HETATM   10  C   LIG     1     -21.631 -14.417 -14.622  1.00  0.00     0.008 C 
HETATM   11  C   LIG     1     -20.350 -17.203 -14.001  1.00  0.00     0.010 C 
HETATM   12  C   LIG     1     -22.537 -13.199 -14.368  1.00  0.00     0.033 C 
HETATM   13  C   LIG     1     -19.251 -18.699 -12.301  1.00  0.00    -0.068 C 
HETATM   14  C   LIG     1     -19.217 -18.182 -13.721  1.00  0.00     0.035 C 
HETATM   15  C   LIG     1     -20.228 -13.007 -12.324  1.00  0.00     0.018 C 
HETATM   16  C   LIG     1     -19.713 -18.331  -9.840  1.00  0.00     0.022 C 
HETATM   17  C   LIG     1     -17.954 -16.979 -11.043  1.00  0.00     0.020 C 
HETATM   18  C   LIG     1     -18.932 -19.606  -9.566  1.00  0.00     0.084 C 
HETATM   19  C   LIG     1     -19.180 -20.022 -12.082  1.00  0.00     0.053 C 
HETATM   20  C   LIG     1     -19.088 -20.572 -10.710  1.00  0.00     0.149 C 
ENDROOT
BRANCH   9  21
HETATM   21  O   LIG     1     -22.753 -11.760 -12.399  1.00  0.00    -0.395 OA
HETATM   22  H   LIG     1     -23.137 -11.733 -11.507  1.00  0.00     0.210 HD
ENDBRANCH   9  21
TORSDOF 1
ENDMDL
