MODEL 1
REMARK VINA RESULT:      -9.6      0.000      0.000
REMARK  3 active torsions:
REMARK  status: ('A' for Active; 'I' for Inactive)
REMARK    1  A    between atoms: C_4  and  O_11 
REMARK    2  A    between atoms: O_11  and  C_12 
REMARK    3  A    between atoms: C_12  and  C_13 
ROOT
HETATM    1  N   LIG     1     -23.582 -24.226 -15.461  1.00  0.00    -0.244 NA
HETATM    2  C   LIG     1     -24.687 -22.087 -15.530  1.00  0.00     0.018 A 
HETATM    3  C   LIG     1     -23.543 -22.887 -15.332  1.00  0.00     0.083 A 
HETATM    4  C   LIG     1     -22.273 -20.865 -14.856  1.00  0.00     0.096 A 
HETATM    5  C   LIG     1     -22.350 -22.252 -14.997  1.00  0.00     0.043 A 
HETATM    6  C   LIG     1     -24.610 -20.690 -15.387  1.00  0.00     0.004 A 
HETATM    7  C   LIG     1     -23.405 -20.083 -15.051  1.00  0.00     0.024 A 
HETATM    8  C   LIG     1     -25.889 -22.724 -15.867  1.00  0.00     0.003 A 
HETATM    9  C   LIG     1     -25.932 -24.105 -16.000  1.00  0.00     0.021 A 
HETATM   10  C   LIG     1     -24.760 -24.803 -15.788  1.00  0.00     0.099 A 
ENDROOT
BRANCH   4  11
HETATM   11  O   LIG     1     -21.089 -20.279 -14.526  1.00  0.00    -0.326 OA
BRANCH  11  12
HETATM   12  C   LIG     1     -19.986 -21.146 -14.267  1.00  0.00     0.175 C 
BRANCH  12  13
HETATM   13  C   LIG     1     -19.576 -21.001 -12.831  1.00  0.00     0.008 A 
HETATM   14  C   LIG     1     -19.388 -22.138 -12.052  1.00  0.00    -0.002 A 
HETATM   15  C   LIG     1     -19.007 -22.003 -10.716  1.00  0.00    -0.000 A 
HETATM   16  C   LIG     1     -18.816 -20.734 -10.170  1.00  0.00    -0.000 A 
HETATM   17  C   LIG     1     -19.006 -19.600 -10.958  1.00  0.00    -0.000 A 
HETATM   18  C   LIG     1     -19.387 -19.733 -12.292  1.00  0.00    -0.002 A 
ENDBRANCH  12  13
ENDBRANCH  11  12
ENDBRANCH   4  11
TORSDOF 3
ENDMDL
