MODEL 1
REMARK VINA RESULT:      -9.3      0.000      0.000
REMARK  3 active torsions:
REMARK  status: ('A' for Active; 'I' for Inactive)
REMARK    1  A    between atoms: N_1  and  C_10 
REMARK    2  A    between atoms: N_2  and  C_11 
REMARK    3  A    between atoms: C_10  and  C_12 
ROOT
HETATM    1  C   LIG     1     -23.221 -16.395 -13.912  1.00  0.00     0.330 C 
ENDROOT
BRANCH   1   2
HETATM    2  N   LIG     1     -23.419 -17.844 -13.961  1.00  0.00     0.097 N 
HETATM    3  C   LIG     1     -22.474 -18.461 -14.899  1.00  0.00     0.292 C 
HETATM    4  C   LIG     1     -22.633 -19.984 -14.918  1.00  0.00     0.153 C 
HETATM    5  N   LIG     1     -24.027 -20.352 -15.185  1.00  0.00    -0.377 N 
HETATM    6  C   LIG     1     -25.033 -19.674 -14.357  1.00  0.00     0.153 C 
HETATM    7  C   LIG     1     -24.797 -18.162 -14.358  1.00  0.00     0.292 C 
BRANCH   5   8
HETATM    8  C   LIG     1     -24.327 -21.631 -15.667  1.00  0.00     0.033 A 
HETATM    9  C   LIG     1     -23.771 -22.778 -15.076  1.00  0.00     0.048 A 
HETATM   10  C   LIG     1     -24.098 -24.021 -15.591  1.00  0.00     0.118 A 
HETATM   11  N   LIG     1     -24.930 -24.211 -16.640  1.00  0.00    -0.273 NA
HETATM   12  C   LIG     1     -25.457 -23.097 -17.197  1.00  0.00     0.118 A 
HETATM   13  C   LIG     1     -25.193 -21.811 -16.758  1.00  0.00     0.048 A 
ENDBRANCH   5   8
ENDBRANCH   1   2
BRANCH   1  14
HETATM   14  C   LIG     1     -22.779 -15.935 -12.548  1.00  0.00     0.057 A 
HETATM   15  N   LIG     1     -23.262 -16.501 -11.424  1.00  0.00    -0.341 N 
HETATM   16  C   LIG     1     -22.659 -15.854 -10.382  1.00  0.00     0.138 A 
HETATM   17  H   LIG     1     -23.927 -17.262 -11.367  1.00  0.00     0.167 HD
HETATM   18  N   LIG     1     -21.831 -14.921 -10.799  1.00  0.00    -0.240 NA
HETATM   19  C   LIG     1     -22.933 -16.195  -9.008  1.00  0.00     0.010 A 
HETATM   20  C   LIG     1     -21.908 -14.974 -12.169  1.00  0.00     0.145 A 
HETATM   21  C   LIG     1     -21.946 -16.025  -8.036  1.00  0.00     0.015 A 
HETATM   22  C   LIG     1     -24.185 -16.694  -8.649  1.00  0.00     0.015 A 
HETATM   23  C   LIG     1     -22.212 -16.354  -6.707  1.00  0.00     0.001 A 
HETATM   24  C   LIG     1     -23.464 -16.854  -6.349  1.00  0.00     0.000 A 
HETATM   25  C   LIG     1     -24.451 -17.024  -7.320  1.00  0.00     0.001 A 
ENDBRANCH   1  14
TORSDOF 3
ENDMDL
MODEL 2
REMARK VINA RESULT:      -8.9      3.162      5.279
REMARK  3 active torsions:
REMARK  status: ('A' for Active; 'I' for Inactive)
REMARK    1  A    between atoms: N_1  and  C_10 
REMARK    2  A    between atoms: N_2  and  C_11 
REMARK    3  A    between atoms: C_10  and  C_12 
ROOT
HETATM    1  C   LIG     1     -20.962 -18.340 -14.265  1.00  0.00     0.330 C 
ENDROOT
BRANCH   1   2
HETATM    2  N   LIG     1     -21.925 -19.441 -14.247  1.00  0.00     0.097 N 
HETATM    3  C   LIG     1     -21.277 -20.699 -14.633  1.00  0.00     0.292 C 
HETATM    4  C   LIG     1     -22.261 -21.870 -14.565  1.00  0.00     0.153 C 
HETATM    5  N   LIG     1     -23.461 -21.579 -15.355  1.00  0.00    -0.377 N 
HETATM    6  C   LIG     1     -24.090 -20.276 -15.100  1.00  0.00     0.153 C 
HETATM    7  C   LIG     1     -23.047 -19.158 -15.154  1.00  0.00     0.292 C 
BRANCH   5   8
HETATM    8  C   LIG     1     -24.279 -22.630 -15.788  1.00  0.00     0.033 A 
HETATM    9  C   LIG     1     -25.349 -22.401 -16.667  1.00  0.00     0.048 A 
HETATM   10  C   LIG     1     -26.130 -23.475 -17.065  1.00  0.00     0.118 A 
HETATM   11  N   LIG     1     -25.929 -24.749 -16.658  1.00  0.00    -0.273 NA
HETATM   12  C   LIG     1     -24.894 -24.952 -15.811  1.00  0.00     0.118 A 
HETATM   13  C   LIG     1     -24.056 -23.948 -15.355  1.00  0.00     0.048 A 
ENDBRANCH   5   8
ENDBRANCH   1   2
BRANCH   1  14
HETATM   14  C   LIG     1     -21.637 -17.002 -14.118  1.00  0.00     0.057 A 
HETATM   15  N   LIG     1     -22.093 -16.323 -15.189  1.00  0.00    -0.341 N 
HETATM   16  C   LIG     1     -22.640 -15.168 -14.702  1.00  0.00     0.138 A 
HETATM   17  H   LIG     1     -22.051 -16.617 -16.156  1.00  0.00     0.167 HD
HETATM   18  N   LIG     1     -22.548 -15.097 -13.393  1.00  0.00    -0.240 NA
HETATM   19  C   LIG     1     -23.236 -14.180 -15.568  1.00  0.00     0.010 A 
HETATM   20  C   LIG     1     -21.913 -16.257 -13.025  1.00  0.00     0.145 A 
HETATM   21  C   LIG     1     -24.284 -13.385 -15.102  1.00  0.00     0.015 A 
HETATM   22  C   LIG     1     -22.766 -14.018 -16.871  1.00  0.00     0.015 A 
HETATM   23  C   LIG     1     -24.860 -12.429 -15.938  1.00  0.00     0.001 A 
HETATM   24  C   LIG     1     -24.389 -12.268 -17.242  1.00  0.00     0.000 A 
HETATM   25  C   LIG     1     -23.342 -13.063 -17.708  1.00  0.00     0.001 A 
ENDBRANCH   1  14
TORSDOF 3
ENDMDL
MODEL 3
REMARK VINA RESULT:      -8.8      4.464      5.855
REMARK  3 active torsions:
REMARK  status: ('A' for Active; 'I' for Inactive)
REMARK    1  A    between atoms: N_1  and  C_10 
REMARK    2  A    between atoms: N_2  and  C_11 
REMARK    3  A    between atoms: C_10  and  C_12 
ROOT
HETATM    1  C   LIG     1     -19.608 -16.681 -12.300  1.00  0.00     0.330 C 
ENDROOT
BRANCH   1   2
HETATM    2  N   LIG     1     -20.732 -16.032 -12.973  1.00  0.00     0.097 N 
HETATM    3  C   LIG     1     -21.078 -16.749 -14.205  1.00  0.00     0.292 C 
HETATM    4  C   LIG     1     -22.290 -16.112 -14.892  1.00  0.00     0.153 C 
HETATM    5  N   LIG     1     -22.065 -14.680 -15.108  1.00  0.00    -0.377 N 
HETATM    6  C   LIG     1     -21.598 -13.926 -13.937  1.00  0.00     0.153 C 
HETATM    7  C   LIG     1     -20.408 -14.633 -13.284  1.00  0.00     0.292 C 
BRANCH   5   8
HETATM    8  C   LIG     1     -22.814 -13.997 -16.073  1.00  0.00     0.033 A 
HETATM    9  C   LIG     1     -22.953 -14.502 -17.376  1.00  0.00     0.048 A 
HETATM   10  C   LIG     1     -23.704 -13.788 -18.294  1.00  0.00     0.118 A 
HETATM   11  N   LIG     1     -24.325 -12.619 -18.018  1.00  0.00    -0.273 NA
HETATM   12  C   LIG     1     -24.183 -12.146 -16.759  1.00  0.00     0.118 A 
HETATM   13  C   LIG     1     -23.453 -12.783 -15.769  1.00  0.00     0.048 A 
ENDBRANCH   5   8
ENDBRANCH   1   2
BRANCH   1  14
HETATM   14  C   LIG     1     -19.867 -16.867 -10.829  1.00  0.00     0.057 A 
HETATM   15  N   LIG     1     -21.117 -16.836 -10.325  1.00  0.00    -0.341 N 
HETATM   16  C   LIG     1     -20.990 -17.035  -8.978  1.00  0.00     0.138 A 
HETATM   17  H   LIG     1     -21.976 -16.706 -10.844  1.00  0.00     0.167 HD
HETATM   18  N   LIG     1     -19.733 -17.187  -8.623  1.00  0.00    -0.240 NA
HETATM   19  C   LIG     1     -22.133 -17.066  -8.099  1.00  0.00     0.010 A 
HETATM   20  C   LIG     1     -19.024 -17.080  -9.793  1.00  0.00     0.145 A 
HETATM   21  C   LIG     1     -22.101 -17.845  -6.942  1.00  0.00     0.015 A 
HETATM   22  C   LIG     1     -23.270 -16.319  -8.405  1.00  0.00     0.015 A 
HETATM   23  C   LIG     1     -23.205 -17.875  -6.091  1.00  0.00     0.001 A 
HETATM   24  C   LIG     1     -24.343 -17.127  -6.397  1.00  0.00     0.000 A 
HETATM   25  C   LIG     1     -24.375 -16.349  -7.554  1.00  0.00     0.001 A 
ENDBRANCH   1  14
TORSDOF 3
ENDMDL
MODEL 4
REMARK VINA RESULT:      -8.7      5.576      6.354
REMARK  3 active torsions:
REMARK  status: ('A' for Active; 'I' for Inactive)
REMARK    1  A    between atoms: N_1  and  C_10 
REMARK    2  A    between atoms: N_2  and  C_11 
REMARK    3  A    between atoms: C_10  and  C_12 
ROOT
HETATM    1  C   LIG     1     -21.014 -12.072 -10.532  1.00  0.00     0.330 C 
ENDROOT
BRANCH   1   2
HETATM    2  N   LIG     1     -21.619 -12.731 -11.690  1.00  0.00     0.097 N 
HETATM    3  C   LIG     1     -20.636 -12.878 -12.769  1.00  0.00     0.292 C 
HETATM    4  C   LIG     1     -21.241 -13.616 -13.967  1.00  0.00     0.153 C 
HETATM    5  N   LIG     1     -22.476 -12.961 -14.404  1.00  0.00    -0.377 N 
HETATM    6  C   LIG     1     -23.454 -12.675 -13.345  1.00  0.00     0.153 C 
HETATM    7  C   LIG     1     -22.778 -11.966 -12.170  1.00  0.00     0.292 C 
BRANCH   5   8
HETATM    8  C   LIG     1     -22.958 -13.181 -15.700  1.00  0.00     0.033 A 
HETATM    9  C   LIG     1     -22.492 -14.256 -16.475  1.00  0.00     0.048 A 
HETATM   10  C   LIG     1     -23.000 -14.430 -17.752  1.00  0.00     0.118 A 
HETATM   11  N   LIG     1     -23.928 -13.623 -18.314  1.00  0.00    -0.273 NA
HETATM   12  C   LIG     1     -24.366 -12.592 -17.555  1.00  0.00     0.118 A 
HETATM   13  C   LIG     1     -23.923 -12.332 -16.269  1.00  0.00     0.048 A 
ENDBRANCH   5   8
ENDBRANCH   1   2
BRANCH   1  14
HETATM   14  C   LIG     1     -21.214 -12.866  -9.268  1.00  0.00     0.057 A 
HETATM   15  N   LIG     1     -22.052 -13.921  -9.225  1.00  0.00    -0.341 N 
HETATM   16  C   LIG     1     -21.994 -14.402  -7.946  1.00  0.00     0.138 A 
HETATM   17  H   LIG     1     -22.600 -14.290  -9.991  1.00  0.00     0.167 HD
HETATM   18  N   LIG     1     -21.168 -13.703  -7.198  1.00  0.00    -0.240 NA
HETATM   19  C   LIG     1     -22.767 -15.544  -7.523  1.00  0.00     0.010 A 
HETATM   20  C   LIG     1     -20.677 -12.732  -8.035  1.00  0.00     0.145 A 
HETATM   21  C   LIG     1     -22.283 -16.378  -6.515  1.00  0.00     0.015 A 
HETATM   22  C   LIG     1     -23.998 -15.814  -8.120  1.00  0.00     0.015 A 
HETATM   23  C   LIG     1     -23.030 -17.482  -6.104  1.00  0.00     0.001 A 
HETATM   24  C   LIG     1     -24.262 -17.752  -6.702  1.00  0.00     0.000 A 
HETATM   25  C   LIG     1     -24.745 -16.918  -7.710  1.00  0.00     0.001 A 
ENDBRANCH   1  14
TORSDOF 3
ENDMDL
MODEL 5
REMARK VINA RESULT:      -8.6      1.931      2.353
REMARK  3 active torsions:
REMARK  status: ('A' for Active; 'I' for Inactive)
REMARK    1  A    between atoms: N_1  and  C_10 
REMARK    2  A    between atoms: N_2  and  C_11 
REMARK    3  A    between atoms: C_10  and  C_12 
ROOT
HETATM    1  C   LIG     1     -22.229 -17.154 -14.705  1.00  0.00     0.330 C 
ENDROOT
BRANCH   1   2
HETATM    2  N   LIG     1     -22.852 -18.469 -14.558  1.00  0.00     0.097 N 
HETATM    3  C   LIG     1     -21.923 -19.527 -14.968  1.00  0.00     0.292 C 
HETATM    4  C   LIG     1     -22.543 -20.913 -14.766  1.00  0.00     0.153 C 
HETATM    5  N   LIG     1     -23.841 -20.998 -15.442  1.00  0.00    -0.377 N 
HETATM    6  C   LIG     1     -24.775 -19.899 -15.166  1.00  0.00     0.153 C 
HETATM    7  C   LIG     1     -24.083 -18.547 -15.357  1.00  0.00     0.292 C 
BRANCH   5   8
HETATM    8  C   LIG     1     -24.378 -22.252 -15.758  1.00  0.00     0.033 A 
HETATM    9  C   LIG     1     -25.403 -22.383 -16.710  1.00  0.00     0.048 A 
HETATM   10  C   LIG     1     -25.901 -23.646 -16.987  1.00  0.00     0.118 A 
HETATM   11  N   LIG     1     -25.461 -24.780 -16.395  1.00  0.00    -0.273 NA
HETATM   12  C   LIG     1     -24.474 -24.636 -15.482  1.00  0.00     0.118 A 
HETATM   13  C   LIG     1     -23.909 -23.420 -15.134  1.00  0.00     0.048 A 
ENDBRANCH   5   8
ENDBRANCH   1   2
BRANCH   1  14
HETATM   14  C   LIG     1     -21.497 -16.737 -13.457  1.00  0.00     0.057 A 
HETATM   15  N   LIG     1     -22.060 -15.907 -12.556  1.00  0.00    -0.341 N 
HETATM   16  C   LIG     1     -21.136 -15.740 -11.562  1.00  0.00     0.138 A 
HETATM   17  H   LIG     1     -22.986 -15.501 -12.602  1.00  0.00     0.167 HD
HETATM   18  N   LIG     1     -20.036 -16.421 -11.798  1.00  0.00    -0.240 NA
HETATM   19  C   LIG     1     -21.390 -14.907 -10.412  1.00  0.00     0.010 A 
HETATM   20  C   LIG     1     -20.266 -17.050 -12.997  1.00  0.00     0.145 A 
HETATM   21  C   LIG     1     -20.795 -15.209  -9.187  1.00  0.00     0.015 A 
HETATM   22  C   LIG     1     -22.230 -13.800 -10.525  1.00  0.00     0.015 A 
HETATM   23  C   LIG     1     -21.040 -14.403  -8.076  1.00  0.00     0.001 A 
HETATM   24  C   LIG     1     -21.881 -13.295  -8.189  1.00  0.00     0.000 A 
HETATM   25  C   LIG     1     -22.476 -12.994  -9.414  1.00  0.00     0.001 A 
ENDBRANCH   1  14
TORSDOF 3
ENDMDL
MODEL 6
REMARK VINA RESULT:      -8.6      5.432      8.542
REMARK  3 active torsions:
REMARK  status: ('A' for Active; 'I' for Inactive)
REMARK    1  A    between atoms: N_1  and  C_10 
REMARK    2  A    between atoms: N_2  and  C_11 
REMARK    3  A    between atoms: C_10  and  C_12 
ROOT
HETATM    1  C   LIG     1     -20.939 -13.542  -7.158  1.00  0.00     0.330 C 
ENDROOT
BRANCH   1   2
HETATM    2  N   LIG     1     -21.043 -13.299  -8.596  1.00  0.00     0.097 N 
HETATM    3  C   LIG     1     -22.311 -12.635  -8.916  1.00  0.00     0.292 C 
HETATM    4  C   LIG     1     -22.408 -12.324 -10.413  1.00  0.00     0.153 C 
HETATM    5  N   LIG     1     -22.183 -13.537 -11.205  1.00  0.00    -0.377 N 
HETATM    6  C   LIG     1     -20.988 -14.316 -10.850  1.00  0.00     0.153 C 
HETATM    7  C   LIG     1     -20.939 -14.562  -9.340  1.00  0.00     0.292 C 
BRANCH   5   8
HETATM    8  C   LIG     1     -22.636 -13.597 -12.528  1.00  0.00     0.033 A 
HETATM    9  C   LIG     1     -23.261 -12.493 -13.131  1.00  0.00     0.048 A 
HETATM   10  C   LIG     1     -23.693 -12.603 -14.443  1.00  0.00     0.118 A 
HETATM   11  N   LIG     1     -23.551 -13.717 -15.195  1.00  0.00    -0.273 NA
HETATM   12  C   LIG     1     -22.946 -14.771 -14.600  1.00  0.00     0.118 A 
HETATM   13  C   LIG     1     -22.480 -14.763 -13.296  1.00  0.00     0.048 A 
ENDBRANCH   5   8
ENDBRANCH   1   2
BRANCH   1  14
HETATM   14  C   LIG     1     -20.800 -12.259  -6.382  1.00  0.00     0.057 A 
HETATM   15  N   LIG     1     -21.693 -11.911  -5.434  1.00  0.00    -0.341 N 
HETATM   16  C   LIG     1     -21.271 -10.708  -4.937  1.00  0.00     0.138 A 
HETATM   17  H   LIG     1     -22.503 -12.441  -5.141  1.00  0.00     0.167 HD
HETATM   18  N   LIG     1     -20.169 -10.296  -5.524  1.00  0.00    -0.240 NA
HETATM   19  C   LIG     1     -21.988 -10.018  -3.892  1.00  0.00     0.010 A 
HETATM   20  C   LIG     1     -19.873 -11.277  -6.437  1.00  0.00     0.145 A 
HETATM   21  C   LIG     1     -21.298  -9.202  -2.996  1.00  0.00     0.015 A 
HETATM   22  C   LIG     1     -23.369 -10.168  -3.777  1.00  0.00     0.015 A 
HETATM   23  C   LIG     1     -21.990  -8.534  -1.986  1.00  0.00     0.001 A 
HETATM   24  C   LIG     1     -23.373  -8.683  -1.871  1.00  0.00     0.000 A 
HETATM   25  C   LIG     1     -24.062  -9.501  -2.767  1.00  0.00     0.001 A 
ENDBRANCH   1  14
TORSDOF 3
ENDMDL
MODEL 7
REMARK VINA RESULT:      -8.5      1.870      2.387
REMARK  3 active torsions:
REMARK  status: ('A' for Active; 'I' for Inactive)
REMARK    1  A    between atoms: N_1  and  C_10 
REMARK    2  A    between atoms: N_2  and  C_11 
REMARK    3  A    between atoms: C_10  and  C_12 
ROOT
HETATM    1  C   LIG     1     -23.026 -14.548 -14.584  1.00  0.00     0.330 C 
ENDROOT
BRANCH   1   2
HETATM    2  N   LIG     1     -23.244 -15.974 -14.343  1.00  0.00     0.097 N 
HETATM    3  C   LIG     1     -22.082 -16.754 -14.784  1.00  0.00     0.292 C 
HETATM    4  C   LIG     1     -22.274 -18.245 -14.487  1.00  0.00     0.153 C 
HETATM    5  N   LIG     1     -23.536 -18.724 -15.060  1.00  0.00    -0.377 N 
HETATM    6  C   LIG     1     -24.722 -17.913 -14.753  1.00  0.00     0.153 C 
HETATM    7  C   LIG     1     -24.450 -16.436 -15.044  1.00  0.00     0.292 C 
BRANCH   5   8
HETATM    8  C   LIG     1     -23.717 -20.093 -15.290  1.00  0.00     0.033 A 
HETATM    9  C   LIG     1     -22.796 -21.038 -14.811  1.00  0.00     0.048 A 
HETATM   10  C   LIG     1     -23.020 -22.381 -15.067  1.00  0.00     0.118 A 
HETATM   11  N   LIG     1     -24.083 -22.852 -15.758  1.00  0.00    -0.273 NA
HETATM   12  C   LIG     1     -24.961 -21.930 -16.212  1.00  0.00     0.118 A 
HETATM   13  C   LIG     1     -24.827 -20.566 -16.010  1.00  0.00     0.048 A 
ENDBRANCH   5   8
ENDBRANCH   1   2
BRANCH   1  14
HETATM   14  C   LIG     1     -22.868 -13.781 -13.298  1.00  0.00     0.057 A 
HETATM   15  N   LIG     1     -22.530 -14.397 -12.148  1.00  0.00    -0.341 N 
HETATM   16  C   LIG     1     -22.476 -13.420 -11.193  1.00  0.00     0.138 A 
HETATM   17  H   LIG     1     -22.342 -15.383 -12.022  1.00  0.00     0.167 HD
HETATM   18  N   LIG     1     -22.760 -12.236 -11.690  1.00  0.00    -0.240 NA
HETATM   19  C   LIG     1     -22.139 -13.708  -9.821  1.00  0.00     0.010 A 
HETATM   20  C   LIG     1     -23.008 -12.466 -13.020  1.00  0.00     0.145 A 
HETATM   21  C   LIG     1     -21.493 -12.746  -9.044  1.00  0.00     0.015 A 
HETATM   22  C   LIG     1     -22.458 -14.949  -9.270  1.00  0.00     0.015 A 
HETATM   23  C   LIG     1     -21.168 -13.025  -7.717  1.00  0.00     0.001 A 
HETATM   24  C   LIG     1     -21.488 -14.266  -7.165  1.00  0.00     0.000 A 
HETATM   25  C   LIG     1     -22.133 -15.228  -7.943  1.00  0.00     0.001 A 
ENDBRANCH   1  14
TORSDOF 3
ENDMDL
MODEL 8
REMARK VINA RESULT:      -8.3      4.606      6.019
REMARK  3 active torsions:
REMARK  status: ('A' for Active; 'I' for Inactive)
REMARK    1  A    between atoms: N_1  and  C_10 
REMARK    2  A    between atoms: N_2  and  C_11 
REMARK    3  A    between atoms: C_10  and  C_12 
ROOT
HETATM    1  C   LIG     1     -18.794 -17.804 -11.998  1.00  0.00     0.330 C 
ENDROOT
BRANCH   1   2
HETATM    2  N   LIG     1     -19.321 -16.865 -12.989  1.00  0.00     0.097 N 
HETATM    3  C   LIG     1     -19.567 -15.555 -12.376  1.00  0.00     0.292 C 
HETATM    4  C   LIG     1     -20.066 -14.547 -13.415  1.00  0.00     0.153 C 
HETATM    5  N   LIG     1     -21.235 -15.075 -14.124  1.00  0.00    -0.377 N 
HETATM    6  C   LIG     1     -21.094 -16.436 -14.658  1.00  0.00     0.153 C 
HETATM    7  C   LIG     1     -20.563 -17.382 -13.578  1.00  0.00     0.292 C 
BRANCH   5   8
HETATM    8  C   LIG     1     -22.101 -14.197 -14.786  1.00  0.00     0.033 A 
HETATM    9  C   LIG     1     -23.073 -13.468 -14.082  1.00  0.00     0.048 A 
HETATM   10  C   LIG     1     -23.906 -12.612 -14.784  1.00  0.00     0.118 A 
HETATM   11  N   LIG     1     -23.848 -12.427 -16.122  1.00  0.00    -0.273 NA
HETATM   12  C   LIG     1     -22.906 -13.136 -16.785  1.00  0.00     0.118 A 
HETATM   13  C   LIG     1     -22.026 -14.016 -16.177  1.00  0.00     0.048 A 
ENDBRANCH   5   8
ENDBRANCH   1   2
BRANCH   1  14
HETATM   14  C   LIG     1     -19.312 -17.509 -10.616  1.00  0.00     0.057 A 
HETATM   15  N   LIG     1     -20.633 -17.498 -10.347  1.00  0.00    -0.341 N 
HETATM   16  C   LIG     1     -20.749 -17.199  -9.017  1.00  0.00     0.138 A 
HETATM   17  H   LIG     1     -21.385 -17.689 -10.997  1.00  0.00     0.167 HD
HETATM   18  N   LIG     1     -19.575 -17.025  -8.451  1.00  0.00    -0.240 NA
HETATM   19  C   LIG     1     -22.032 -17.101  -8.364  1.00  0.00     0.010 A 
HETATM   20  C   LIG     1     -18.668 -17.220  -9.463  1.00  0.00     0.145 A 
HETATM   21  C   LIG     1     -22.151 -17.418  -7.011  1.00  0.00     0.015 A 
HETATM   22  C   LIG     1     -23.152 -16.689  -9.085  1.00  0.00     0.015 A 
HETATM   23  C   LIG     1     -23.390 -17.322  -6.379  1.00  0.00     0.001 A 
HETATM   24  C   LIG     1     -24.512 -16.910  -7.100  1.00  0.00     0.000 A 
HETATM   25  C   LIG     1     -24.392 -16.593  -8.453  1.00  0.00     0.001 A 
ENDBRANCH   1  14
TORSDOF 3
ENDMDL
MODEL 9
REMARK VINA RESULT:      -8.2      3.046      9.041
REMARK  3 active torsions:
REMARK  status: ('A' for Active; 'I' for Inactive)
REMARK    1  A    between atoms: N_1  and  C_10 
REMARK    2  A    between atoms: N_2  and  C_11 
REMARK    3  A    between atoms: C_10  and  C_12 
ROOT
HETATM    1  C   LIG     1     -23.764 -17.706 -15.816  1.00  0.00     0.330 C 
ENDROOT
BRANCH   1   2
HETATM    2  N   LIG     1     -22.931 -16.838 -14.984  1.00  0.00     0.097 N 
HETATM    3  C   LIG     1     -23.406 -16.845 -13.596  1.00  0.00     0.292 C 
HETATM    4  C   LIG     1     -22.510 -15.984 -12.702  1.00  0.00     0.153 C 
HETATM    5  N   LIG     1     -22.380 -14.632 -13.255  1.00  0.00    -0.377 N 
HETATM    6  C   LIG     1     -22.023 -14.559 -14.678  1.00  0.00     0.153 C 
HETATM    7  C   LIG     1     -22.937 -15.465 -15.506  1.00  0.00     0.292 C 
BRANCH   5   8
HETATM    8  C   LIG     1     -21.985 -13.578 -12.424  1.00  0.00     0.033 A 
HETATM    9  C   LIG     1     -22.883 -12.994 -11.515  1.00  0.00     0.048 A 
HETATM   10  C   LIG     1     -22.443 -11.952 -10.715  1.00  0.00     0.118 A 
HETATM   11  N   LIG     1     -21.189 -11.449 -10.749  1.00  0.00    -0.273 NA
HETATM   12  C   LIG     1     -20.336 -12.022 -11.629  1.00  0.00     0.118 A 
HETATM   13  C   LIG     1     -20.677 -13.067 -12.472  1.00  0.00     0.048 A 
ENDBRANCH   5   8
ENDBRANCH   1   2
BRANCH   1  14
HETATM   14  C   LIG     1     -23.557 -19.161 -15.491  1.00  0.00     0.057 A 
HETATM   15  N   LIG     1     -24.391 -20.112 -15.957  1.00  0.00    -0.341 N 
HETATM   16  C   LIG     1     -23.918 -21.302 -15.478  1.00  0.00     0.138 A 
HETATM   17  H   LIG     1     -25.196 -19.971 -16.554  1.00  0.00     0.167 HD
HETATM   18  N   LIG     1     -22.840 -21.140 -14.743  1.00  0.00    -0.240 NA
HETATM   19  C   LIG     1     -24.563 -22.557 -15.776  1.00  0.00     0.010 A 
HETATM   20  C   LIG     1     -22.613 -19.786 -14.752  1.00  0.00     0.145 A 
HETATM   21  C   LIG     1     -23.810 -23.729 -15.846  1.00  0.00     0.015 A 
HETATM   22  C   LIG     1     -25.940 -22.600 -15.994  1.00  0.00     0.015 A 
HETATM   23  C   LIG     1     -24.434 -24.943 -16.133  1.00  0.00     0.001 A 
HETATM   24  C   LIG     1     -25.811 -24.986 -16.351  1.00  0.00     0.000 A 
HETATM   25  C   LIG     1     -26.564 -23.814 -16.282  1.00  0.00     0.001 A 
ENDBRANCH   1  14
TORSDOF 3
ENDMDL
