MODEL 1
REMARK VINA RESULT:      -9.1      0.000      0.000
REMARK  1 active torsions:
REMARK  status: ('A' for Active; 'I' for Inactive)
REMARK    1  A    between atoms: O_1  and  C_10 
ROOT
HETATM    1  O   LIG     1     -19.120 -21.855 -10.543  1.00  0.00    -0.293 OA
HETATM    2  C   LIG     1     -21.439 -15.078 -13.201  1.00  0.00     0.001 C 
HETATM    3  C   LIG     1     -21.456 -13.901 -12.207  1.00  0.00    -0.014 C 
HETATM    4  C   LIG     1     -20.295 -16.061 -12.933  1.00  0.00    -0.004 C 
HETATM    5  C   LIG     1     -20.455 -16.638 -11.491  1.00  0.00     0.002 C 
HETATM    6  C   LIG     1     -19.346 -17.700 -11.130  1.00  0.00    -0.016 C 
HETATM    7  C   LIG     1     -21.687 -14.469 -10.801  1.00  0.00     0.012 C 
HETATM    8  C   LIG     1     -20.618 -15.513 -10.431  1.00  0.00     0.007 C 
HETATM    9  C   LIG     1     -22.641 -13.103 -12.783  1.00  0.00     0.126 C 
HETATM   10  C   LIG     1     -21.532 -14.397 -14.563  1.00  0.00     0.008 C 
HETATM   11  C   LIG     1     -20.287 -17.202 -13.958  1.00  0.00     0.010 C 
HETATM   12  C   LIG     1     -22.434 -13.175 -14.310  1.00  0.00     0.033 C 
HETATM   13  C   LIG     1     -19.239 -18.734 -12.258  1.00  0.00    -0.068 C 
HETATM   14  C   LIG     1     -19.169 -18.195 -13.668  1.00  0.00     0.035 C 
HETATM   15  C   LIG     1     -20.171 -13.034 -12.211  1.00  0.00     0.018 C 
HETATM   16  C   LIG     1     -19.754 -18.402  -9.803  1.00  0.00     0.022 C 
HETATM   17  C   LIG     1     -17.958 -17.045 -10.944  1.00  0.00     0.020 C 
HETATM   18  C   LIG     1     -18.989 -19.687  -9.532  1.00  0.00     0.084 C 
HETATM   19  C   LIG     1     -19.183 -20.061 -12.059  1.00  0.00     0.053 C 
HETATM   20  C   LIG     1     -19.127 -20.634 -10.694  1.00  0.00     0.149 C 
ENDROOT
BRANCH   9  21
HETATM   21  O   LIG     1     -22.684 -11.766 -12.323  1.00  0.00    -0.395 OA
HETATM   22  H   LIG     1     -21.974 -11.634 -11.673  1.00  0.00     0.210 HD
ENDBRANCH   9  21
TORSDOF 1
ENDMDL
