MODEL 1
REMARK VINA RESULT:      -9.7      0.000      0.000
REMARK  1 active torsions:
REMARK  status: ('A' for Active; 'I' for Inactive)
REMARK    1  A    between atoms: C_10  and  C_15 
ROOT
HETATM    1 CL   LIG     1     -23.785 -18.879 -15.424  1.00  0.00    -0.084 Cl
HETATM    2  N   LIG     1     -20.512 -14.452 -13.207  1.00  0.00    -0.300 N 
HETATM    3  N   LIG     1     -18.303 -16.557 -13.357  1.00  0.00    -0.282 NA
HETATM    4  N   LIG     1     -19.976 -12.466 -12.324  1.00  0.00    -0.245 NA
HETATM    5  C   LIG     1     -21.284 -15.549 -13.655  1.00  0.00     0.053 A 
HETATM    6  C   LIG     1     -19.147 -14.305 -13.349  1.00  0.00     0.056 A 
HETATM    7  C   LIG     1     -20.735 -16.840 -13.790  1.00  0.00     0.022 A 
HETATM    8  C   LIG     1     -18.306 -15.291 -14.064  1.00  0.00     0.208 C 
HETATM    9  C   LIG     1     -19.394 -17.237 -13.244  1.00  0.00     0.077 C 
HETATM   10  C   LIG     1     -20.957 -13.289 -12.617  1.00  0.00     0.107 A 
HETATM   11  C   LIG     1     -18.848 -13.090 -12.776  1.00  0.00     0.145 A 
HETATM   12  C   LIG     1     -22.625 -15.325 -14.008  1.00  0.00     0.032 A 
HETATM   13  C   LIG     1     -21.519 -17.859 -14.358  1.00  0.00     0.040 A 
HETATM   14  C   LIG     1     -22.345 -13.033 -12.166  1.00  0.00     0.091 C 
HETATM   15  C   LIG     1     -23.396 -16.356 -14.546  1.00  0.00     0.026 A 
HETATM   16  C   LIG     1     -22.840 -17.616 -14.735  1.00  0.00     0.035 A 
ENDROOT
BRANCH   9  17
HETATM   17  C   LIG     1     -19.296 -18.513 -12.476  1.00  0.00     0.032 A 
HETATM   18  C   LIG     1     -19.140 -18.476 -11.097  1.00  0.00     0.129 A 
HETATM   19  F   LIG     1     -19.075 -17.308 -10.441  1.00  0.00    -0.205 F 
HETATM   20  C   LIG     1     -19.051 -19.670 -10.382  1.00  0.00     0.043 A 
HETATM   21  C   LIG     1     -19.118 -20.891 -11.052  1.00  0.00     0.003 A 
HETATM   22  C   LIG     1     -19.275 -20.918 -12.439  1.00  0.00     0.001 A 
HETATM   23  C   LIG     1     -19.364 -19.724 -13.153  1.00  0.00     0.017 A 
ENDBRANCH   9  17
TORSDOF 1
ENDMDL
