MODEL 1
REMARK VINA RESULT:      -9.8      0.000      0.000
REMARK  9 active torsions:
REMARK  status: ('A' for Active; 'I' for Inactive)
REMARK    1  A    between atoms: O_3  and  C_15 
REMARK    2  A    between atoms: O_3  and  C_24 
REMARK    3  A    between atoms: O_4  and  C_30 
REMARK    4  A    between atoms: O_4  and  C_32 
REMARK    5  A    between atoms: O_5  and  C_23 
REMARK    6  A    between atoms: N_11  and  C_22 
REMARK       I    between atoms: N_11  and  C_31 
REMARK    7  A    between atoms: N_12  and  C_28 
REMARK    8  A    between atoms: C_24  and  C_32 
REMARK    9  A    between atoms: C_30  and  C_31 
ROOT
HETATM    1  O   LIG     1     -22.177 -16.288 -14.618  1.00  0.00    -0.310 OA
ENDROOT
BRANCH   1   2
HETATM    2  C   LIG     1     -23.608 -16.263 -14.621  1.00  0.00     0.281 C 
BRANCH   2   3
HETATM    3  C   LIG     1     -24.122 -17.678 -14.471  1.00  0.00     0.246 C 
HETATM    4  O   LIG     1     -24.966 -17.948 -13.622  1.00  0.00    -0.271 OA
HETATM    5  N   LIG     1     -23.528 -18.537 -15.387  1.00  0.00    -0.323 N 
HETATM    6  H   LIG     1     -22.841 -18.140 -16.025  1.00  0.00     0.169 HD
BRANCH   5   7
HETATM    7  C   LIG     1     -23.760 -19.924 -15.543  1.00  0.00     0.068 A 
HETATM    8  C   LIG     1     -22.869 -20.859 -15.014  1.00  0.00     0.097 A 
HETATM    9  C   LIG     1     -23.111 -22.222 -15.176  1.00  0.00     0.075 A 
HETATM   10  C   LIG     1     -24.243 -22.653 -15.866  1.00  0.00     0.105 A 
HETATM   11  C   LIG     1     -25.135 -21.719 -16.395  1.00  0.00     0.038 A 
HETATM   12  C   LIG     1     -24.893 -20.354 -16.233  1.00  0.00     0.035 A 
BRANCH   8  13
HETATM   13  O   LIG     1     -21.755 -20.458 -14.337  1.00  0.00    -0.354 OA
HETATM   14  C   LIG     1     -20.619 -21.316 -14.397  1.00  0.00     0.210 C 
ENDBRANCH   8  13
BRANCH  10  15
HETATM   15  N   LIG     1     -24.491 -24.041 -16.032  1.00  0.00    -0.116 N 
HETATM   16  O   LIG     1     -24.340 -24.809 -15.052  1.00  0.00    -0.532 OA
HETATM   17  O   LIG     1     -24.856 -24.461 -17.157  1.00  0.00    -0.532 OA
ENDBRANCH  10  15
ENDBRANCH   5   7
ENDBRANCH   2   3
ENDBRANCH   1   2
BRANCH   1  18
HETATM   18  C   LIG     1     -21.575 -15.368 -13.808  1.00  0.00     0.283 C 
HETATM   19  O   LIG     1     -20.765 -14.521 -14.158  1.00  0.00    -0.263 OA
BRANCH  18  20
HETATM   20  C   LIG     1     -22.066 -15.562 -12.398  1.00  0.00     0.286 C 
BRANCH  20  21
HETATM   21  O   LIG     1     -21.010 -15.248 -11.496  1.00  0.00    -0.337 OA
BRANCH  21  22
HETATM   22  C   LIG     1     -20.519 -16.277 -10.739  1.00  0.00     0.120 A 
HETATM   23  C   LIG     1     -21.270 -16.734  -9.659  1.00  0.00     0.104 A 
HETATM   24  N   LIG     1     -22.457 -16.166  -9.374  1.00  0.00    -0.250 NA
HETATM   25  C   LIG     1     -20.748 -17.795  -8.889  1.00  0.00     0.017 A 
HETATM   26  C   LIG     1     -23.155 -16.640  -8.316  1.00  0.00     0.031 A 
HETATM   27  C   LIG     1     -22.728 -17.672  -7.506  1.00  0.00     0.027 A 
HETATM   28  C   LIG     1     -24.466 -15.982  -8.037  1.00  0.00     0.070 C 
HETATM   29  C   LIG     1     -21.504 -18.254  -7.802  1.00  0.00     0.017 A 
HETATM   30  C   LIG     1     -19.506 -18.363  -9.214  1.00  0.00     0.048 A 
HETATM   31 CL   LIG     1     -18.797 -19.668  -8.318  1.00  0.00    -0.083 Cl
HETATM   32  C   LIG     1     -18.775 -17.887 -10.299  1.00  0.00     0.051 A 
HETATM   33  C   LIG     1     -19.282 -16.843 -11.062  1.00  0.00     0.071 A 
HETATM   34 CL   LIG     1     -18.363 -16.266 -12.404  1.00  0.00    -0.081 Cl
ENDBRANCH  21  22
ENDBRANCH  20  21
ENDBRANCH  18  20
ENDBRANCH   1  18
TORSDOF 9
ENDMDL
MODEL 2
REMARK VINA RESULT:      -9.6      4.135      6.539
REMARK  9 active torsions:
REMARK  status: ('A' for Active; 'I' for Inactive)
REMARK    1  A    between atoms: O_3  and  C_15 
REMARK    2  A    between atoms: O_3  and  C_24 
REMARK    3  A    between atoms: O_4  and  C_30 
REMARK    4  A    between atoms: O_4  and  C_32 
REMARK    5  A    between atoms: O_5  and  C_23 
REMARK    6  A    between atoms: N_11  and  C_22 
REMARK       I    between atoms: N_11  and  C_31 
REMARK    7  A    between atoms: N_12  and  C_28 
REMARK    8  A    between atoms: C_24  and  C_32 
REMARK    9  A    between atoms: C_30  and  C_31 
ROOT
HETATM    1  O   LIG     1     -20.564 -15.123  -9.290  1.00  0.00    -0.310 OA
ENDROOT
BRANCH   1   2
HETATM    2  C   LIG     1     -21.388 -13.976  -9.523  1.00  0.00     0.281 C 
BRANCH   2   3
HETATM    3  C   LIG     1     -21.349 -13.637 -10.997  1.00  0.00     0.246 C 
HETATM    4  O   LIG     1     -20.368 -13.083 -11.483  1.00  0.00    -0.271 OA
HETATM    5  N   LIG     1     -22.512 -14.036 -11.643  1.00  0.00    -0.323 N 
HETATM    6  H   LIG     1     -23.230 -14.486 -11.081  1.00  0.00     0.169 HD
BRANCH   5   7
HETATM    7  C   LIG     1     -22.830 -13.886 -13.015  1.00  0.00     0.068 A 
HETATM    8  C   LIG     1     -22.748 -14.972 -13.887  1.00  0.00     0.097 A 
HETATM    9  C   LIG     1     -23.066 -14.810 -15.235  1.00  0.00     0.075 A 
HETATM   10  C   LIG     1     -23.465 -13.562 -15.712  1.00  0.00     0.105 A 
HETATM   11  C   LIG     1     -23.547 -12.475 -14.840  1.00  0.00     0.038 A 
HETATM   12  C   LIG     1     -23.230 -12.638 -13.491  1.00  0.00     0.035 A 
BRANCH   8  13
HETATM   13  O   LIG     1     -22.359 -16.200 -13.440  1.00  0.00    -0.354 OA
HETATM   14  C   LIG     1     -22.573 -17.305 -14.315  1.00  0.00     0.210 C 
ENDBRANCH   8  13
BRANCH  10  15
HETATM   15  N   LIG     1     -23.788 -13.395 -17.084  1.00  0.00    -0.116 N 
HETATM   16  O   LIG     1     -23.514 -14.315 -17.892  1.00  0.00    -0.532 OA
HETATM   17  O   LIG     1     -24.339 -12.329 -17.452  1.00  0.00    -0.532 OA
ENDBRANCH  10  15
ENDBRANCH   5   7
ENDBRANCH   2   3
ENDBRANCH   1   2
BRANCH   1  18
HETATM   18  C   LIG     1     -21.227 -16.312  -9.188  1.00  0.00     0.283 C 
HETATM   19  O   LIG     1     -22.280 -16.600  -9.741  1.00  0.00    -0.263 OA
BRANCH  18  20
HETATM   20  C   LIG     1     -20.454 -17.226  -8.274  1.00  0.00     0.286 C 
BRANCH  20  21
HETATM   21  O   LIG     1     -19.212 -17.549  -8.891  1.00  0.00    -0.337 OA
BRANCH  21  22
HETATM   22  C   LIG     1     -19.201 -18.635  -9.725  1.00  0.00     0.120 A 
HETATM   23  C   LIG     1     -19.144 -18.425 -11.100  1.00  0.00     0.104 A 
HETATM   24  N   LIG     1     -19.102 -17.171 -11.590  1.00  0.00    -0.250 NA
HETATM   25  C   LIG     1     -19.135 -19.555 -11.945  1.00  0.00     0.017 A 
HETATM   26  C   LIG     1     -19.047 -17.010 -12.932  1.00  0.00     0.031 A 
HETATM   27  C   LIG     1     -19.033 -18.053 -13.837  1.00  0.00     0.027 A 
HETATM   28  C   LIG     1     -19.000 -15.605 -13.432  1.00  0.00     0.070 C 
HETATM   29  C   LIG     1     -19.078 -19.343 -13.329  1.00  0.00     0.017 A 
HETATM   30  C   LIG     1     -19.181 -20.848 -11.399  1.00  0.00     0.048 A 
HETATM   31 CL   LIG     1     -19.172 -22.286 -12.369  1.00  0.00    -0.083 Cl
HETATM   32  C   LIG     1     -19.237 -21.030 -10.020  1.00  0.00     0.051 A 
HETATM   33  C   LIG     1     -19.247 -19.923  -9.182  1.00  0.00     0.071 A 
HETATM   34 CL   LIG     1     -19.318 -20.167  -7.476  1.00  0.00    -0.081 Cl
ENDBRANCH  21  22
ENDBRANCH  20  21
ENDBRANCH  18  20
ENDBRANCH   1  18
TORSDOF 9
ENDMDL
MODEL 3
REMARK VINA RESULT:      -9.6      1.846      2.565
REMARK  9 active torsions:
REMARK  status: ('A' for Active; 'I' for Inactive)
REMARK    1  A    between atoms: O_3  and  C_15 
REMARK    2  A    between atoms: O_3  and  C_24 
REMARK    3  A    between atoms: O_4  and  C_30 
REMARK    4  A    between atoms: O_4  and  C_32 
REMARK    5  A    between atoms: O_5  and  C_23 
REMARK    6  A    between atoms: N_11  and  C_22 
REMARK       I    between atoms: N_11  and  C_31 
REMARK    7  A    between atoms: N_12  and  C_28 
REMARK    8  A    between atoms: C_24  and  C_32 
REMARK    9  A    between atoms: C_30  and  C_31 
ROOT
HETATM    1  O   LIG     1     -20.372 -16.700 -14.340  1.00  0.00    -0.310 OA
ENDROOT
BRANCH   1   2
HETATM    2  C   LIG     1     -21.680 -16.135 -14.201  1.00  0.00     0.281 C 
BRANCH   2   3
HETATM    3  C   LIG     1     -22.704 -17.246 -14.281  1.00  0.00     0.246 C 
HETATM    4  O   LIG     1     -23.882 -17.029 -14.015  1.00  0.00    -0.271 OA
HETATM    5  N   LIG     1     -22.126 -18.445 -14.680  1.00  0.00    -0.323 N 
HETATM    6  H   LIG     1     -21.125 -18.445 -14.862  1.00  0.00     0.169 HD
BRANCH   5   7
HETATM    7  C   LIG     1     -22.769 -19.692 -14.865  1.00  0.00     0.068 A 
HETATM    8  C   LIG     1     -22.044 -20.882 -14.803  1.00  0.00     0.097 A 
HETATM    9  C   LIG     1     -22.692 -22.104 -14.986  1.00  0.00     0.075 A 
HETATM   10  C   LIG     1     -24.064 -22.136 -15.232  1.00  0.00     0.105 A 
HETATM   11  C   LIG     1     -24.790 -20.946 -15.294  1.00  0.00     0.038 A 
HETATM   12  C   LIG     1     -24.142 -19.723 -15.110  1.00  0.00     0.035 A 
BRANCH   8  13
HETATM   13  O   LIG     1     -20.702 -20.872 -14.564  1.00  0.00    -0.354 OA
HETATM   14  C   LIG     1     -20.250 -21.522 -13.379  1.00  0.00     0.210 C 
ENDBRANCH   8  13
BRANCH  10  15
HETATM   15  N   LIG     1     -24.724 -23.378 -15.420  1.00  0.00    -0.116 N 
HETATM   16  O   LIG     1     -25.964 -23.386 -15.613  1.00  0.00    -0.532 OA
HETATM   17  O   LIG     1     -24.049 -24.436 -15.388  1.00  0.00    -0.532 OA
ENDBRANCH  10  15
ENDBRANCH   5   7
ENDBRANCH   2   3
ENDBRANCH   1   2
BRANCH   1  18
HETATM   18  C   LIG     1     -19.475 -16.349 -13.372  1.00  0.00     0.283 C 
HETATM   19  O   LIG     1     -18.733 -15.377 -13.398  1.00  0.00    -0.263 OA
BRANCH  18  20
HETATM   20  C   LIG     1     -19.538 -17.358 -12.257  1.00  0.00     0.286 C 
BRANCH  20  21
HETATM   21  O   LIG     1     -19.219 -16.709 -11.031  1.00  0.00    -0.337 OA
BRANCH  21  22
HETATM   22  C   LIG     1     -20.130 -16.826 -10.015  1.00  0.00     0.120 A 
HETATM   23  C   LIG     1     -21.042 -15.795  -9.809  1.00  0.00     0.104 A 
HETATM   24  N   LIG     1     -21.020 -14.706 -10.602  1.00  0.00    -0.250 NA
HETATM   25  C   LIG     1     -21.973 -15.931  -8.758  1.00  0.00     0.017 A 
HETATM   26  C   LIG     1     -21.924 -13.726 -10.368  1.00  0.00     0.031 A 
HETATM   27  C   LIG     1     -22.871 -13.771  -9.365  1.00  0.00     0.027 A 
HETATM   28  C   LIG     1     -21.865 -12.538 -11.269  1.00  0.00     0.070 C 
HETATM   29  C   LIG     1     -22.891 -14.893  -8.550  1.00  0.00     0.017 A 
HETATM   30  C   LIG     1     -21.966 -17.081  -7.950  1.00  0.00     0.048 A 
HETATM   31 CL   LIG     1     -23.077 -17.324  -6.640  1.00  0.00    -0.083 Cl
HETATM   32  C   LIG     1     -21.043 -18.097  -8.178  1.00  0.00     0.051 A 
HETATM   33  C   LIG     1     -20.124 -17.970  -9.212  1.00  0.00     0.071 A 
HETATM   34 CL   LIG     1     -18.986 -19.239  -9.479  1.00  0.00    -0.081 Cl
ENDBRANCH  21  22
ENDBRANCH  20  21
ENDBRANCH  18  20
ENDBRANCH   1  18
TORSDOF 9
ENDMDL
MODEL 4
REMARK VINA RESULT:      -9.5      1.936      2.814
REMARK  9 active torsions:
REMARK  status: ('A' for Active; 'I' for Inactive)
REMARK    1  A    between atoms: O_3  and  C_15 
REMARK    2  A    between atoms: O_3  and  C_24 
REMARK    3  A    between atoms: O_4  and  C_30 
REMARK    4  A    between atoms: O_4  and  C_32 
REMARK    5  A    between atoms: O_5  and  C_23 
REMARK    6  A    between atoms: N_11  and  C_22 
REMARK       I    between atoms: N_11  and  C_31 
REMARK    7  A    between atoms: N_12  and  C_28 
REMARK    8  A    between atoms: C_24  and  C_32 
REMARK    9  A    between atoms: C_30  and  C_31 
ROOT
HETATM    1  O   LIG     1     -22.592 -15.798 -12.835  1.00  0.00    -0.310 OA
ENDROOT
BRANCH   1   2
HETATM    2  C   LIG     1     -22.959 -16.092 -14.187  1.00  0.00     0.281 C 
BRANCH   2   3
HETATM    3  C   LIG     1     -23.664 -17.430 -14.222  1.00  0.00     0.246 C 
HETATM    4  O   LIG     1     -24.777 -17.561 -13.723  1.00  0.00    -0.271 OA
HETATM    5  N   LIG     1     -22.899 -18.393 -14.868  1.00  0.00    -0.323 N 
HETATM    6  H   LIG     1     -21.990 -18.109 -15.226  1.00  0.00     0.169 HD
BRANCH   5   7
HETATM    7  C   LIG     1     -23.233 -19.751 -15.092  1.00  0.00     0.068 A 
HETATM    8  C   LIG     1     -22.310 -20.763 -14.827  1.00  0.00     0.097 A 
HETATM    9  C   LIG     1     -22.653 -22.096 -15.051  1.00  0.00     0.075 A 
HETATM   10  C   LIG     1     -23.918 -22.417 -15.540  1.00  0.00     0.105 A 
HETATM   11  C   LIG     1     -24.842 -21.406 -15.805  1.00  0.00     0.038 A 
HETATM   12  C   LIG     1     -24.499 -20.072 -15.580  1.00  0.00     0.035 A 
BRANCH   8  13
HETATM   13  O   LIG     1     -21.067 -20.469 -14.349  1.00  0.00    -0.354 OA
HETATM   14  C   LIG     1     -20.326 -21.540 -13.770  1.00  0.00     0.210 C 
ENDBRANCH   8  13
BRANCH  10  15
HETATM   15  N   LIG     1     -24.268 -23.774 -15.771  1.00  0.00    -0.116 N 
HETATM   16  O   LIG     1     -24.156 -24.600 -14.833  1.00  0.00    -0.532 OA
HETATM   17  O   LIG     1     -24.682 -24.109 -16.907  1.00  0.00    -0.532 OA
ENDBRANCH  10  15
ENDBRANCH   5   7
ENDBRANCH   2   3
ENDBRANCH   1   2
BRANCH   1  18
HETATM   18  C   LIG     1     -21.317 -15.344 -12.657  1.00  0.00     0.283 C 
HETATM   19  O   LIG     1     -20.295 -15.898 -13.041  1.00  0.00    -0.263 OA
BRANCH  18  20
HETATM   20  C   LIG     1     -21.361 -14.041 -11.904  1.00  0.00     0.286 C 
BRANCH  20  21
HETATM   21  O   LIG     1     -20.859 -14.253 -10.589  1.00  0.00    -0.337 OA
BRANCH  21  22
HETATM   22  C   LIG     1     -21.672 -14.931  -9.720  1.00  0.00     0.120 A 
HETATM   23  C   LIG     1     -21.259 -16.173  -9.245  1.00  0.00     0.104 A 
HETATM   24  N   LIG     1     -20.079 -16.688  -9.641  1.00  0.00    -0.250 NA
HETATM   25  C   LIG     1     -22.109 -16.859  -8.352  1.00  0.00     0.017 A 
HETATM   26  C   LIG     1     -19.715 -17.898  -9.156  1.00  0.00     0.031 A 
HETATM   27  C   LIG     1     -20.478 -18.642  -8.279  1.00  0.00     0.027 A 
HETATM   28  C   LIG     1     -18.400 -18.432  -9.619  1.00  0.00     0.070 C 
HETATM   29  C   LIG     1     -21.693 -18.109  -7.874  1.00  0.00     0.017 A 
HETATM   30  C   LIG     1     -23.333 -16.291  -7.962  1.00  0.00     0.048 A 
HETATM   31 CL   LIG     1     -24.431 -17.069  -6.867  1.00  0.00    -0.083 Cl
HETATM   32  C   LIG     1     -23.722 -15.048  -8.451  1.00  0.00     0.051 A 
HETATM   33  C   LIG     1     -22.890 -14.367  -9.332  1.00  0.00     0.071 A 
HETATM   34 CL   LIG     1     -23.389 -12.827  -9.929  1.00  0.00    -0.081 Cl
ENDBRANCH  21  22
ENDBRANCH  20  21
ENDBRANCH  18  20
ENDBRANCH   1  18
TORSDOF 9
ENDMDL
MODEL 5
REMARK VINA RESULT:      -9.5      2.094      3.615
REMARK  9 active torsions:
REMARK  status: ('A' for Active; 'I' for Inactive)
REMARK    1  A    between atoms: O_3  and  C_15 
REMARK    2  A    between atoms: O_3  and  C_24 
REMARK    3  A    between atoms: O_4  and  C_30 
REMARK    4  A    between atoms: O_4  and  C_32 
REMARK    5  A    between atoms: O_5  and  C_23 
REMARK    6  A    between atoms: N_11  and  C_22 
REMARK       I    between atoms: N_11  and  C_31 
REMARK    7  A    between atoms: N_12  and  C_28 
REMARK    8  A    between atoms: C_24  and  C_32 
REMARK    9  A    between atoms: C_30  and  C_31 
ROOT
HETATM    1  O   LIG     1     -19.862 -18.277 -13.460  1.00  0.00    -0.310 OA
ENDROOT
BRANCH   1   2
HETATM    2  C   LIG     1     -19.235 -19.558 -13.338  1.00  0.00     0.281 C 
BRANCH   2   3
HETATM    3  C   LIG     1     -20.177 -20.617 -13.865  1.00  0.00     0.246 C 
HETATM    4  O   LIG     1     -19.817 -21.787 -13.945  1.00  0.00    -0.271 OA
HETATM    5  N   LIG     1     -21.411 -20.078 -14.204  1.00  0.00    -0.323 N 
HETATM    6  H   LIG     1     -21.539 -19.078 -14.072  1.00  0.00     0.169 HD
BRANCH   5   7
HETATM    7  C   LIG     1     -22.536 -20.762 -14.727  1.00  0.00     0.068 A 
HETATM    8  C   LIG     1     -23.656 -20.057 -15.166  1.00  0.00     0.097 A 
HETATM    9  C   LIG     1     -24.756 -20.744 -15.679  1.00  0.00     0.075 A 
HETATM   10  C   LIG     1     -24.736 -22.135 -15.753  1.00  0.00     0.105 A 
HETATM   11  C   LIG     1     -23.616 -22.842 -15.314  1.00  0.00     0.038 A 
HETATM   12  C   LIG     1     -22.515 -22.155 -14.801  1.00  0.00     0.035 A 
BRANCH   8  13
HETATM   13  O   LIG     1     -23.696 -18.695 -15.101  1.00  0.00    -0.354 OA
HETATM   14  C   LIG     1     -24.982 -18.083 -15.141  1.00  0.00     0.210 C 
ENDBRANCH   8  13
BRANCH  10  15
HETATM   15  N   LIG     1     -25.855 -22.837 -16.273  1.00  0.00    -0.116 N 
HETATM   16  O   LIG     1     -25.966 -22.972 -17.516  1.00  0.00    -0.532 OA
HETATM   17  O   LIG     1     -26.704 -23.304 -15.475  1.00  0.00    -0.532 OA
ENDBRANCH  10  15
ENDBRANCH   5   7
ENDBRANCH   2   3
ENDBRANCH   1   2
BRANCH   1  18
HETATM   18  C   LIG     1     -19.424 -17.321 -12.590  1.00  0.00     0.283 C 
HETATM   19  O   LIG     1     -19.293 -16.130 -12.836  1.00  0.00    -0.263 OA
BRANCH  18  20
HETATM   20  C   LIG     1     -19.120 -17.967 -11.264  1.00  0.00     0.286 C 
BRANCH  20  21
HETATM   21  O   LIG     1     -19.175 -16.975 -10.246  1.00  0.00    -0.337 OA
BRANCH  21  22
HETATM   22  C   LIG     1     -20.275 -16.987  -9.431  1.00  0.00     0.120 A 
HETATM   23  C   LIG     1     -21.143 -15.899  -9.458  1.00  0.00     0.104 A 
HETATM   24  N   LIG     1     -20.895 -14.858 -10.276  1.00  0.00    -0.250 NA
HETATM   25  C   LIG     1     -22.271 -15.928  -8.611  1.00  0.00     0.017 A 
HETATM   26  C   LIG     1     -21.763 -13.820 -10.271  1.00  0.00     0.031 A 
HETATM   27  C   LIG     1     -22.892 -13.759  -9.480  1.00  0.00     0.027 A 
HETATM   28  C   LIG     1     -21.451 -12.689 -11.193  1.00  0.00     0.070 C 
HETATM   29  C   LIG     1     -23.144 -14.832  -8.638  1.00  0.00     0.017 A 
HETATM   30  C   LIG     1     -22.498 -17.030  -7.770  1.00  0.00     0.048 A 
HETATM   31 CL   LIG     1     -23.860 -17.141  -6.702  1.00  0.00    -0.083 Cl
HETATM   32  C   LIG     1     -21.614 -18.105  -7.763  1.00  0.00     0.051 A 
HETATM   33  C   LIG     1     -20.502 -18.084  -8.594  1.00  0.00     0.071 A 
HETATM   34 CL   LIG     1     -19.416 -19.425  -8.571  1.00  0.00    -0.081 Cl
ENDBRANCH  21  22
ENDBRANCH  20  21
ENDBRANCH  18  20
ENDBRANCH   1  18
TORSDOF 9
ENDMDL
MODEL 6
REMARK VINA RESULT:      -9.5      3.865      6.610
REMARK  9 active torsions:
REMARK  status: ('A' for Active; 'I' for Inactive)
REMARK    1  A    between atoms: O_3  and  C_15 
REMARK    2  A    between atoms: O_3  and  C_24 
REMARK    3  A    between atoms: O_4  and  C_30 
REMARK    4  A    between atoms: O_4  and  C_32 
REMARK    5  A    between atoms: O_5  and  C_23 
REMARK    6  A    between atoms: N_11  and  C_22 
REMARK       I    between atoms: N_11  and  C_31 
REMARK    7  A    between atoms: N_12  and  C_28 
REMARK    8  A    between atoms: C_24  and  C_32 
REMARK    9  A    between atoms: C_30  and  C_31 
ROOT
HETATM    1  O   LIG     1     -21.554 -12.712 -11.310  1.00  0.00    -0.310 OA
ENDROOT
BRANCH   1   2
HETATM    2  C   LIG     1     -22.606 -13.428 -10.656  1.00  0.00     0.281 C 
BRANCH   2   3
HETATM    3  C   LIG     1     -22.262 -14.900 -10.643  1.00  0.00     0.246 C 
HETATM    4  O   LIG     1     -22.821 -15.677 -11.412  1.00  0.00    -0.271 OA
HETATM    5  N   LIG     1     -21.286 -15.188  -9.699  1.00  0.00    -0.323 N 
HETATM    6  H   LIG     1     -20.929 -14.415  -9.142  1.00  0.00     0.169 HD
BRANCH   5   7
HETATM    7  C   LIG     1     -20.716 -16.451  -9.405  1.00  0.00     0.068 A 
HETATM    8  C   LIG     1     -21.359 -17.338  -8.542  1.00  0.00     0.097 A 
HETATM    9  C   LIG     1     -20.786 -18.578  -8.263  1.00  0.00     0.075 A 
HETATM   10  C   LIG     1     -19.571 -18.932  -8.846  1.00  0.00     0.105 A 
HETATM   11  C   LIG     1     -18.927 -18.046  -9.710  1.00  0.00     0.038 A 
HETATM   12  C   LIG     1     -19.500 -16.804  -9.990  1.00  0.00     0.035 A 
BRANCH   8  13
HETATM   13  O   LIG     1     -22.548 -17.010  -7.960  1.00  0.00    -0.354 OA
HETATM   14  C   LIG     1     -22.528 -16.724  -6.564  1.00  0.00     0.210 C 
ENDBRANCH   8  13
BRANCH  10  15
HETATM   15  N   LIG     1     -18.985 -20.194  -8.562  1.00  0.00    -0.116 N 
HETATM   16  O   LIG     1     -18.722 -20.490  -7.372  1.00  0.00    -0.532 OA
HETATM   17  O   LIG     1     -18.748 -20.980  -9.512  1.00  0.00    -0.532 OA
ENDBRANCH  10  15
ENDBRANCH   5   7
ENDBRANCH   2   3
ENDBRANCH   1   2
BRANCH   1  18
HETATM   18  C   LIG     1     -21.551 -12.786 -12.674  1.00  0.00     0.283 C 
HETATM   19  O   LIG     1     -22.527 -12.672 -13.403  1.00  0.00    -0.263 OA
BRANCH  18  20
HETATM   20  C   LIG     1     -20.144 -13.034 -13.148  1.00  0.00     0.286 C 
BRANCH  20  21
HETATM   21  O   LIG     1     -20.189 -13.861 -14.305  1.00  0.00    -0.337 OA
BRANCH  21  22
HETATM   22  C   LIG     1     -20.052 -15.209 -14.106  1.00  0.00     0.120 A 
HETATM   23  C   LIG     1     -21.134 -16.041 -14.382  1.00  0.00     0.104 A 
HETATM   24  N   LIG     1     -22.289 -15.518 -14.836  1.00  0.00    -0.250 NA
HETATM   25  C   LIG     1     -20.977 -17.427 -14.170  1.00  0.00     0.017 A 
HETATM   26  C   LIG     1     -23.316 -16.362 -15.091  1.00  0.00     0.031 A 
HETATM   27  C   LIG     1     -23.257 -17.729 -14.916  1.00  0.00     0.027 A 
HETATM   28  C   LIG     1     -24.577 -15.741 -15.593  1.00  0.00     0.070 C 
HETATM   29  C   LIG     1     -22.066 -18.264 -14.447  1.00  0.00     0.017 A 
HETATM   30  C   LIG     1     -19.758 -17.938 -13.695  1.00  0.00     0.048 A 
HETATM   31 CL   LIG     1     -19.485 -19.627 -13.411  1.00  0.00    -0.083 Cl
HETATM   32  C   LIG     1     -18.691 -17.084 -13.428  1.00  0.00     0.051 A 
HETATM   33  C   LIG     1     -18.839 -15.718 -13.633  1.00  0.00     0.071 A 
HETATM   34 CL   LIG     1     -17.507 -14.674 -13.296  1.00  0.00    -0.081 Cl
ENDBRANCH  21  22
ENDBRANCH  20  21
ENDBRANCH  18  20
ENDBRANCH   1  18
TORSDOF 9
ENDMDL
MODEL 7
REMARK VINA RESULT:      -9.4      1.939      2.689
REMARK  9 active torsions:
REMARK  status: ('A' for Active; 'I' for Inactive)
REMARK    1  A    between atoms: O_3  and  C_15 
REMARK    2  A    between atoms: O_3  and  C_24 
REMARK    3  A    between atoms: O_4  and  C_30 
REMARK    4  A    between atoms: O_4  and  C_32 
REMARK    5  A    between atoms: O_5  and  C_23 
REMARK    6  A    between atoms: N_11  and  C_22 
REMARK       I    between atoms: N_11  and  C_31 
REMARK    7  A    between atoms: N_12  and  C_28 
REMARK    8  A    between atoms: C_24  and  C_32 
REMARK    9  A    between atoms: C_30  and  C_31 
ROOT
HETATM    1  O   LIG     1     -20.763 -13.754 -13.112  1.00  0.00    -0.310 OA
ENDROOT
BRANCH   1   2
HETATM    2  C   LIG     1     -21.827 -13.277 -13.943  1.00  0.00     0.281 C 
BRANCH   2   3
HETATM    3  C   LIG     1     -22.330 -14.418 -14.798  1.00  0.00     0.246 C 
HETATM    4  O   LIG     1     -22.381 -14.306 -16.019  1.00  0.00    -0.271 OA
HETATM    5  N   LIG     1     -22.684 -15.517 -14.025  1.00  0.00    -0.323 N 
HETATM    6  H   LIG     1     -22.576 -15.436 -13.017  1.00  0.00     0.169 HD
BRANCH   5   7
HETATM    7  C   LIG     1     -23.191 -16.760 -14.476  1.00  0.00     0.068 A 
HETATM    8  C   LIG     1     -22.355 -17.870 -14.589  1.00  0.00     0.097 A 
HETATM    9  C   LIG     1     -22.869 -19.088 -15.033  1.00  0.00     0.075 A 
HETATM   10  C   LIG     1     -24.219 -19.196 -15.365  1.00  0.00     0.105 A 
HETATM   11  C   LIG     1     -25.056 -18.085 -15.251  1.00  0.00     0.038 A 
HETATM   12  C   LIG     1     -24.542 -16.867 -14.806  1.00  0.00     0.035 A 
BRANCH   8  13
HETATM   13  O   LIG     1     -21.031 -17.785 -14.271  1.00  0.00    -0.354 OA
HETATM   14  C   LIG     1     -20.407 -18.969 -13.780  1.00  0.00     0.210 C 
ENDBRANCH   8  13
BRANCH  10  15
HETATM   15  N   LIG     1     -24.744 -20.434 -15.818  1.00  0.00    -0.116 N 
HETATM   16  O   LIG     1     -25.249 -20.499 -16.965  1.00  0.00    -0.532 OA
HETATM   17  O   LIG     1     -24.688 -21.432 -15.059  1.00  0.00    -0.532 OA
ENDBRANCH  10  15
ENDBRANCH   5   7
ENDBRANCH   2   3
ENDBRANCH   1   2
BRANCH   1  18
HETATM   18  C   LIG     1     -20.607 -13.103 -11.923  1.00  0.00     0.283 C 
HETATM   19  O   LIG     1     -20.220 -11.951 -11.778  1.00  0.00    -0.263 OA
BRANCH  18  20
HETATM   20  C   LIG     1     -20.987 -14.032 -10.801  1.00  0.00     0.286 C 
BRANCH  20  21
HETATM   21  O   LIG     1     -21.132 -15.348 -11.324  1.00  0.00    -0.337 OA
BRANCH  21  22
HETATM   22  C   LIG     1     -20.603 -16.369 -10.580  1.00  0.00     0.120 A 
HETATM   23  C   LIG     1     -21.319 -16.842  -9.484  1.00  0.00     0.104 A 
HETATM   24  N   LIG     1     -22.510 -16.297  -9.170  1.00  0.00    -0.250 NA
HETATM   25  C   LIG     1     -20.759 -17.893  -8.728  1.00  0.00     0.017 A 
HETATM   26  C   LIG     1     -23.173 -16.785  -8.096  1.00  0.00     0.031 A 
HETATM   27  C   LIG     1     -22.707 -17.811  -7.299  1.00  0.00     0.027 A 
HETATM   28  C   LIG     1     -24.489 -16.154  -7.784  1.00  0.00     0.070 C 
HETATM   29  C   LIG     1     -21.479 -18.369  -7.625  1.00  0.00     0.017 A 
HETATM   30  C   LIG     1     -19.514 -18.437  -9.084  1.00  0.00     0.048 A 
HETATM   31 CL   LIG     1     -18.760 -19.731  -8.208  1.00  0.00    -0.083 Cl
HETATM   32  C   LIG     1     -18.819 -17.946 -10.186  1.00  0.00     0.051 A 
HETATM   33  C   LIG     1     -19.364 -16.911 -10.934  1.00  0.00     0.071 A 
HETATM   34 CL   LIG     1     -18.488 -16.314 -12.296  1.00  0.00    -0.081 Cl
ENDBRANCH  21  22
ENDBRANCH  20  21
ENDBRANCH  18  20
ENDBRANCH   1  18
TORSDOF 9
ENDMDL
MODEL 8
REMARK VINA RESULT:      -9.2      2.400      3.438
REMARK  9 active torsions:
REMARK  status: ('A' for Active; 'I' for Inactive)
REMARK    1  A    between atoms: O_3  and  C_15 
REMARK    2  A    between atoms: O_3  and  C_24 
REMARK    3  A    between atoms: O_4  and  C_30 
REMARK    4  A    between atoms: O_4  and  C_32 
REMARK    5  A    between atoms: O_5  and  C_23 
REMARK    6  A    between atoms: N_11  and  C_22 
REMARK       I    between atoms: N_11  and  C_31 
REMARK    7  A    between atoms: N_12  and  C_28 
REMARK    8  A    between atoms: C_24  and  C_32 
REMARK    9  A    between atoms: C_30  and  C_31 
ROOT
HETATM    1  O   LIG     1     -23.348 -14.823 -14.612  1.00  0.00    -0.310 OA
ENDROOT
BRANCH   1   2
HETATM    2  C   LIG     1     -22.536 -15.932 -15.009  1.00  0.00     0.281 C 
BRANCH   2   3
HETATM    3  C   LIG     1     -23.252 -17.215 -14.650  1.00  0.00     0.246 C 
HETATM    4  O   LIG     1     -24.044 -17.246 -13.713  1.00  0.00    -0.271 OA
HETATM    5  N   LIG     1     -22.891 -18.255 -15.498  1.00  0.00    -0.323 N 
HETATM    6  H   LIG     1     -22.214 -18.051 -16.229  1.00  0.00     0.169 HD
BRANCH   5   7
HETATM    7  C   LIG     1     -23.355 -19.592 -15.467  1.00  0.00     0.068 A 
HETATM    8  C   LIG     1     -22.568 -20.606 -14.921  1.00  0.00     0.097 A 
HETATM    9  C   LIG     1     -23.039 -21.919 -14.897  1.00  0.00     0.075 A 
HETATM   10  C   LIG     1     -24.296 -22.218 -15.419  1.00  0.00     0.105 A 
HETATM   11  C   LIG     1     -25.085 -21.204 -15.965  1.00  0.00     0.038 A 
HETATM   12  C   LIG     1     -24.614 -19.891 -15.989  1.00  0.00     0.035 A 
BRANCH   8  13
HETATM   13  O   LIG     1     -21.335 -20.334 -14.406  1.00  0.00    -0.354 OA
HETATM   14  C   LIG     1     -20.397 -21.407 -14.373  1.00  0.00     0.210 C 
ENDBRANCH   8  13
BRANCH  10  15
HETATM   15  N   LIG     1     -24.777 -23.554 -15.397  1.00  0.00    -0.116 N 
HETATM   16  O   LIG     1     -26.010 -23.760 -15.501  1.00  0.00    -0.532 OA
HETATM   17  O   LIG     1     -23.954 -24.493 -15.274  1.00  0.00    -0.532 OA
ENDBRANCH  10  15
ENDBRANCH   5   7
ENDBRANCH   2   3
ENDBRANCH   1   2
BRANCH   1  18
HETATM   18  C   LIG     1     -22.784 -13.591 -14.780  1.00  0.00     0.283 C 
HETATM   19  O   LIG     1     -22.134 -13.223 -15.749  1.00  0.00    -0.263 OA
BRANCH  18  20
HETATM   20  C   LIG     1     -23.089 -12.744 -13.573  1.00  0.00     0.286 C 
BRANCH  20  21
HETATM   21  O   LIG     1     -21.918 -12.653 -12.769  1.00  0.00    -0.337 OA
BRANCH  21  22
HETATM   22  C   LIG     1     -21.942 -13.308 -11.567  1.00  0.00     0.120 A 
HETATM   23  C   LIG     1     -21.107 -14.408 -11.385  1.00  0.00     0.104 A 
HETATM   24  N   LIG     1     -20.295 -14.810 -12.382  1.00  0.00    -0.250 NA
HETATM   25  C   LIG     1     -21.145 -15.072 -10.141  1.00  0.00     0.017 A 
HETATM   26  C   LIG     1     -19.500 -15.884 -12.164  1.00  0.00     0.031 A 
HETATM   27  C   LIG     1     -19.468 -16.596 -10.982  1.00  0.00     0.027 A 
HETATM   28  C   LIG     1     -18.616 -16.296 -13.293  1.00  0.00     0.070 C 
HETATM   29  C   LIG     1     -20.306 -16.179  -9.959  1.00  0.00     0.017 A 
HETATM   30  C   LIG     1     -22.006 -14.625  -9.125  1.00  0.00     0.048 A 
HETATM   31 CL   LIG     1     -22.110 -15.386  -7.570  1.00  0.00    -0.083 Cl
HETATM   32  C   LIG     1     -22.829 -13.522  -9.333  1.00  0.00     0.051 A 
HETATM   33  C   LIG     1     -22.798 -12.863 -10.555  1.00  0.00     0.071 A 
HETATM   34 CL   LIG     1     -23.826 -11.499 -10.796  1.00  0.00    -0.081 Cl
ENDBRANCH  21  22
ENDBRANCH  20  21
ENDBRANCH  18  20
ENDBRANCH   1  18
TORSDOF 9
ENDMDL
MODEL 9
REMARK VINA RESULT:      -9.2      4.354      6.358
REMARK  9 active torsions:
REMARK  status: ('A' for Active; 'I' for Inactive)
REMARK    1  A    between atoms: O_3  and  C_15 
REMARK    2  A    between atoms: O_3  and  C_24 
REMARK    3  A    between atoms: O_4  and  C_30 
REMARK    4  A    between atoms: O_4  and  C_32 
REMARK    5  A    between atoms: O_5  and  C_23 
REMARK    6  A    between atoms: N_11  and  C_22 
REMARK       I    between atoms: N_11  and  C_31 
REMARK    7  A    between atoms: N_12  and  C_28 
REMARK    8  A    between atoms: C_24  and  C_32 
REMARK    9  A    between atoms: C_30  and  C_31 
ROOT
HETATM    1  O   LIG     1     -20.837 -14.219  -9.492  1.00  0.00    -0.310 OA
ENDROOT
BRANCH   1   2
HETATM    2  C   LIG     1     -21.875 -13.275  -9.777  1.00  0.00     0.281 C 
BRANCH   2   3
HETATM    3  C   LIG     1     -21.819 -12.916 -11.245  1.00  0.00     0.246 C 
HETATM    4  O   LIG     1     -21.021 -12.077 -11.652  1.00  0.00    -0.271 OA
HETATM    5  N   LIG     1     -22.742 -13.644 -11.985  1.00  0.00    -0.323 N 
HETATM    6  H   LIG     1     -23.330 -14.304 -11.481  1.00  0.00     0.169 HD
BRANCH   5   7
HETATM    7  C   LIG     1     -22.975 -13.577 -13.379  1.00  0.00     0.068 A 
HETATM    8  C   LIG     1     -22.662 -14.656 -14.206  1.00  0.00     0.097 A 
HETATM    9  C   LIG     1     -22.897 -14.576 -15.578  1.00  0.00     0.075 A 
HETATM   10  C   LIG     1     -23.445 -13.417 -16.124  1.00  0.00     0.105 A 
HETATM   11  C   LIG     1     -23.759 -12.336 -15.299  1.00  0.00     0.038 A 
HETATM   12  C   LIG     1     -23.524 -12.417 -13.926  1.00  0.00     0.035 A 
BRANCH   8  13
HETATM   13  O   LIG     1     -22.124 -15.799 -13.690  1.00  0.00    -0.354 OA
HETATM   14  C   LIG     1     -22.855 -17.006 -13.892  1.00  0.00     0.210 C 
ENDBRANCH   8  13
BRANCH  10  15
HETATM   15  N   LIG     1     -23.685 -13.332 -17.521  1.00  0.00    -0.116 N 
HETATM   16  O   LIG     1     -24.100 -12.252 -18.005  1.00  0.00    -0.532 OA
HETATM   17  O   LIG     1     -23.473 -14.343 -18.235  1.00  0.00    -0.532 OA
ENDBRANCH  10  15
ENDBRANCH   5   7
ENDBRANCH   2   3
ENDBRANCH   1   2
BRANCH   1  18
HETATM   18  C   LIG     1     -21.236 -15.521  -9.392  1.00  0.00     0.283 C 
HETATM   19  O   LIG     1     -22.317 -15.971  -9.747  1.00  0.00    -0.263 OA
BRANCH  18  20
HETATM   20  C   LIG     1     -20.128 -16.327  -8.769  1.00  0.00     0.286 C 
BRANCH  20  21
HETATM   21  O   LIG     1     -19.031 -16.376  -9.674  1.00  0.00    -0.337 OA
BRANCH  21  22
HETATM   22  C   LIG     1     -19.096 -17.310 -10.673  1.00  0.00     0.120 A 
HETATM   23  C   LIG     1     -19.078 -18.660 -10.332  1.00  0.00     0.104 A 
HETATM   24  N   LIG     1     -18.996 -19.029  -9.039  1.00  0.00    -0.250 NA
HETATM   25  C   LIG     1     -19.145 -19.609 -11.374  1.00  0.00     0.017 A 
HETATM   26  C   LIG     1     -18.981 -20.351  -8.751  1.00  0.00     0.031 A 
HETATM   27  C   LIG     1     -19.043 -21.351  -9.700  1.00  0.00     0.027 A 
HETATM   28  C   LIG     1     -18.891 -20.715  -7.307  1.00  0.00     0.070 C 
HETATM   29  C   LIG     1     -19.126 -20.968 -11.031  1.00  0.00     0.017 A 
HETATM   30  C   LIG     1     -19.228 -19.189 -12.712  1.00  0.00     0.048 A 
HETATM   31 CL   LIG     1     -19.316 -20.292 -14.047  1.00  0.00    -0.083 Cl
HETATM   32  C   LIG     1     -19.246 -17.832 -13.025  1.00  0.00     0.051 A 
HETATM   33  C   LIG     1     -19.179 -16.892 -12.004  1.00  0.00     0.071 A 
HETATM   34 CL   LIG     1     -19.201 -15.215 -12.410  1.00  0.00    -0.081 Cl
ENDBRANCH  21  22
ENDBRANCH  20  21
ENDBRANCH  18  20
ENDBRANCH   1  18
TORSDOF 9
ENDMDL
