MODEL 1
REMARK VINA RESULT:      -9.1      0.000      0.000
REMARK  1 active torsions:
REMARK  status: ('A' for Active; 'I' for Inactive)
REMARK    1  A    between atoms: O_1  and  C_10 
ROOT
HETATM    1  O   LIG     1     -19.117 -21.858 -10.532  1.00  0.00    -0.293 OA
HETATM    2  C   LIG     1     -21.421 -15.083 -13.207  1.00  0.00     0.001 C 
HETATM    3  C   LIG     1     -21.457 -13.908 -12.210  1.00  0.00    -0.014 C 
HETATM    4  C   LIG     1     -20.277 -16.062 -12.924  1.00  0.00    -0.004 C 
HETATM    5  C   LIG     1     -20.458 -16.643 -11.486  1.00  0.00     0.002 C 
HETATM    6  C   LIG     1     -19.350 -17.702 -11.111  1.00  0.00    -0.016 C 
HETATM    7  C   LIG     1     -21.708 -14.481 -10.810  1.00  0.00     0.012 C 
HETATM    8  C   LIG     1     -20.641 -15.522 -10.426  1.00  0.00     0.007 C 
HETATM    9  C   LIG     1     -22.636 -13.113 -12.803  1.00  0.00     0.126 C 
HETATM   10  C   LIG     1     -21.494 -14.397 -14.568  1.00  0.00     0.008 C 
HETATM   11  C   LIG     1     -20.248 -17.200 -13.952  1.00  0.00     0.010 C 
HETATM   12  C   LIG     1     -22.405 -13.180 -14.326  1.00  0.00     0.033 C 
HETATM   13  C   LIG     1     -19.221 -18.733 -12.240  1.00  0.00    -0.068 C 
HETATM   14  C   LIG     1     -19.131 -18.189 -13.647  1.00  0.00     0.035 C 
HETATM   15  C   LIG     1     -20.175 -13.037 -12.192  1.00  0.00     0.018 C 
HETATM   16  C   LIG     1     -19.776 -18.409  -9.792  1.00  0.00     0.022 C 
HETATM   17  C   LIG     1     -17.968 -17.043 -10.901  1.00  0.00     0.020 C 
HETATM   18  C   LIG     1     -19.011 -19.693  -9.513  1.00  0.00     0.084 C 
HETATM   19  C   LIG     1     -19.163 -20.060 -12.044  1.00  0.00     0.053 C 
HETATM   20  C   LIG     1     -19.126 -20.637 -10.680  1.00  0.00     0.149 C 
ENDROOT
BRANCH   9  21
HETATM   21  O   LIG     1     -22.691 -11.778 -12.339  1.00  0.00    -0.395 OA
HETATM   22  H   LIG     1     -22.131 -11.224 -12.908  1.00  0.00     0.210 HD
ENDBRANCH   9  21
TORSDOF 1
ENDMDL
