MODEL 1
REMARK VINA RESULT:      -7.9      0.000      0.000
REMARK  14 active torsions:
REMARK  status: ('A' for Active; 'I' for Inactive)
REMARK    1  A    between atoms: O_1  and  C_14 
REMARK    2  A    between atoms: O_1  and  C_21 
REMARK    3  A    between atoms: O_4  and  C_17 
REMARK    4  A    between atoms: O_4  and  C_22 
REMARK    5  A    between atoms: N_6  and  C_8 
REMARK       I    between atoms: N_6  and  C_12 
REMARK    6  A    between atoms: N_7  and  C_10 
REMARK    7  A    between atoms: C_8  and  C_9 
REMARK    8  A    between atoms: C_8  and  C_14 
REMARK    9  A    between atoms: C_9  and  C_11 
REMARK   10  A    between atoms: C_10  and  C_12 
REMARK   11  A    between atoms: C_10  and  C_13 
REMARK   12  A    between atoms: C_13  and  C_17 
REMARK   13  A    between atoms: C_21  and  C_23 
REMARK   14  A    between atoms: C_22  and  C_24 
ROOT
HETATM    1  O   LIG     1     -22.545 -16.337 -13.076  1.00  0.00    -0.271 OA
HETATM    2  N   LIG     1     -20.683 -16.351 -11.690  1.00  0.00    -0.345 N 
HETATM    3  C   LIG     1     -21.355 -16.577 -12.882  1.00  0.00     0.252 C 
HETATM    4  H   LIG     1     -19.699 -16.597 -11.618  1.00  0.00     0.163 HD
ENDROOT
BRANCH   2   5
HETATM    5  C   LIG     1     -21.317 -15.795 -10.516  1.00  0.00     0.188 C 
BRANCH   5   6
HETATM    6  C   LIG     1     -21.027 -16.645  -9.270  1.00  0.00     0.074 C 
BRANCH   6   7
HETATM    7  C   LIG     1     -22.199 -16.806  -8.328  1.00  0.00    -0.056 A 
HETATM    8  C   LIG     1     -21.997 -17.308  -7.042  1.00  0.00     0.007 A 
HETATM    9  C   LIG     1     -23.078 -17.457  -6.174  1.00  0.00     0.001 A 
HETATM   10  C   LIG     1     -24.361 -17.105  -6.591  1.00  0.00     0.000 A 
HETATM   11  C   LIG     1     -24.564 -16.603  -7.877  1.00  0.00     0.001 A 
HETATM   12  C   LIG     1     -23.482 -16.454  -8.745  1.00  0.00     0.007 A 
ENDBRANCH   6   7
ENDBRANCH   5   6
BRANCH   5  13
HETATM   13  C   LIG     1     -20.959 -14.329 -10.302  1.00  0.00     0.282 C 
HETATM   14  O   LIG     1     -20.949 -13.511 -11.216  1.00  0.00    -0.263 OA
BRANCH  13  15
HETATM   15  O   LIG     1     -20.644 -14.062  -9.004  1.00  0.00    -0.316 OA
BRANCH  15  16
HETATM   16  C   LIG     1     -21.470 -13.093  -8.350  1.00  0.00     0.205 C 
BRANCH  16  17
HETATM   17  C   LIG     1     -21.180 -13.124  -6.887  1.00  0.00    -0.011 C 
HETATM   18  C   LIG     1     -20.963 -12.034  -6.145  1.00  0.00     0.009 C 
ENDBRANCH  16  17
ENDBRANCH  15  16
ENDBRANCH  13  15
ENDBRANCH   5  13
ENDBRANCH   2   5
BRANCH   3  19
HETATM   19  C   LIG     1     -20.452 -17.199 -13.945  1.00  0.00     0.318 C 
BRANCH  19  20
HETATM   20  N   LIG     1     -20.188 -16.160 -14.941  1.00  0.00     0.092 N 
HETATM   21  H   LIG     1     -19.183 -16.010 -15.021  1.00  0.00     0.313 HD
HETATM   22  H   LIG     1     -20.500 -16.480 -15.857  1.00  0.00     0.313 HD
ENDBRANCH  19  20
BRANCH  19  23
HETATM   23  C   LIG     1     -19.138 -17.661 -13.313  1.00  0.00     0.156 C 
BRANCH  23  24
HETATM   24  C   LIG     1     -19.208 -19.118 -12.923  1.00  0.00     0.261 C 
HETATM   25  O   LIG     1     -19.336 -20.032 -13.728  1.00  0.00    -0.265 OA
BRANCH  24  26
HETATM   26  O   LIG     1     -19.078 -19.247 -11.572  1.00  0.00    -0.318 OA
BRANCH  26  27
HETATM   27  C   LIG     1     -19.098 -20.589 -11.076  1.00  0.00     0.205 C 
BRANCH  27  28
HETATM   28  C   LIG     1     -19.087 -20.550  -9.584  1.00  0.00    -0.011 C 
HETATM   29  C   LIG     1     -18.836 -19.450  -8.867  1.00  0.00     0.009 C 
ENDBRANCH  27  28
ENDBRANCH  26  27
ENDBRANCH  24  26
ENDBRANCH  23  24
ENDBRANCH  19  23
ENDBRANCH   3  19
TORSDOF 14
ENDMDL
MODEL 2
REMARK VINA RESULT:      -7.8      1.427      2.432
REMARK  14 active torsions:
REMARK  status: ('A' for Active; 'I' for Inactive)
REMARK    1  A    between atoms: O_1  and  C_14 
REMARK    2  A    between atoms: O_1  and  C_21 
REMARK    3  A    between atoms: O_4  and  C_17 
REMARK    4  A    between atoms: O_4  and  C_22 
REMARK    5  A    between atoms: N_6  and  C_8 
REMARK       I    between atoms: N_6  and  C_12 
REMARK    6  A    between atoms: N_7  and  C_10 
REMARK    7  A    between atoms: C_8  and  C_9 
REMARK    8  A    between atoms: C_8  and  C_14 
REMARK    9  A    between atoms: C_9  and  C_11 
REMARK   10  A    between atoms: C_10  and  C_12 
REMARK   11  A    between atoms: C_10  and  C_13 
REMARK   12  A    between atoms: C_13  and  C_17 
REMARK   13  A    between atoms: C_21  and  C_23 
REMARK   14  A    between atoms: C_22  and  C_24 
ROOT
HETATM    1  O   LIG     1     -22.639 -16.489 -13.010  1.00  0.00    -0.271 OA
HETATM    2  N   LIG     1     -20.743 -16.017 -11.756  1.00  0.00    -0.345 N 
HETATM    3  C   LIG     1     -21.417 -16.494 -12.871  1.00  0.00     0.252 C 
HETATM    4  H   LIG     1     -19.729 -16.078 -11.724  1.00  0.00     0.163 HD
ENDROOT
BRANCH   2   5
HETATM    5  C   LIG     1     -21.411 -15.447 -10.609  1.00  0.00     0.188 C 
BRANCH   5   6
HETATM    6  C   LIG     1     -21.038 -16.192  -9.319  1.00  0.00     0.074 C 
BRANCH   6   7
HETATM    7  C   LIG     1     -22.204 -16.495  -8.404  1.00  0.00    -0.056 A 
HETATM    8  C   LIG     1     -21.992 -17.179  -7.206  1.00  0.00     0.007 A 
HETATM    9  C   LIG     1     -23.067 -17.458  -6.363  1.00  0.00     0.001 A 
HETATM   10  C   LIG     1     -24.354 -17.054  -6.717  1.00  0.00     0.000 A 
HETATM   11  C   LIG     1     -24.566 -16.370  -7.914  1.00  0.00     0.001 A 
HETATM   12  C   LIG     1     -23.491 -16.090  -8.757  1.00  0.00     0.007 A 
ENDBRANCH   6   7
ENDBRANCH   5   6
BRANCH   5  13
HETATM   13  C   LIG     1     -21.179 -13.946 -10.488  1.00  0.00     0.282 C 
HETATM   14  O   LIG     1     -20.925 -13.400  -9.419  1.00  0.00    -0.263 OA
BRANCH  13  15
HETATM   15  O   LIG     1     -21.305 -13.308 -11.686  1.00  0.00    -0.316 OA
BRANCH  15  16
HETATM   16  C   LIG     1     -22.636 -12.928 -12.050  1.00  0.00     0.205 C 
BRANCH  16  17
HETATM   17  C   LIG     1     -22.785 -13.061 -13.529  1.00  0.00    -0.011 C 
HETATM   18  C   LIG     1     -23.810 -12.560 -14.225  1.00  0.00     0.009 C 
ENDBRANCH  16  17
ENDBRANCH  15  16
ENDBRANCH  13  15
ENDBRANCH   5  13
ENDBRANCH   2   5
BRANCH   3  19
HETATM   19  C   LIG     1     -20.467 -17.069 -13.919  1.00  0.00     0.318 C 
BRANCH  19  20
HETATM   20  N   LIG     1     -20.342 -16.065 -14.976  1.00  0.00     0.092 N 
HETATM   21  H   LIG     1     -20.431 -15.133 -14.575  1.00  0.00     0.313 HD
HETATM   22  H   LIG     1     -19.407 -16.111 -15.380  1.00  0.00     0.313 HD
ENDBRANCH  19  20
BRANCH  19  23
HETATM   23  C   LIG     1     -19.099 -17.341 -13.293  1.00  0.00     0.156 C 
BRANCH  23  24
HETATM   24  C   LIG     1     -19.072 -18.690 -12.616  1.00  0.00     0.261 C 
HETATM   25  O   LIG     1     -19.169 -19.754 -13.214  1.00  0.00    -0.265 OA
BRANCH  24  26
HETATM   26  O   LIG     1     -18.894 -18.535 -11.273  1.00  0.00    -0.318 OA
BRANCH  26  27
HETATM   27  C   LIG     1     -19.151 -19.697 -10.479  1.00  0.00     0.205 C 
BRANCH  27  28
HETATM   28  C   LIG     1     -18.965 -19.347  -9.040  1.00  0.00    -0.011 C 
HETATM   29  C   LIG     1     -19.338 -20.133  -8.025  1.00  0.00     0.009 C 
ENDBRANCH  27  28
ENDBRANCH  26  27
ENDBRANCH  24  26
ENDBRANCH  23  24
ENDBRANCH  19  23
ENDBRANCH   3  19
TORSDOF 14
ENDMDL
MODEL 3
REMARK VINA RESULT:      -7.7      1.853      5.536
REMARK  14 active torsions:
REMARK  status: ('A' for Active; 'I' for Inactive)
REMARK    1  A    between atoms: O_1  and  C_14 
REMARK    2  A    between atoms: O_1  and  C_21 
REMARK    3  A    between atoms: O_4  and  C_17 
REMARK    4  A    between atoms: O_4  and  C_22 
REMARK    5  A    between atoms: N_6  and  C_8 
REMARK       I    between atoms: N_6  and  C_12 
REMARK    6  A    between atoms: N_7  and  C_10 
REMARK    7  A    between atoms: C_8  and  C_9 
REMARK    8  A    between atoms: C_8  and  C_14 
REMARK    9  A    between atoms: C_9  and  C_11 
REMARK   10  A    between atoms: C_10  and  C_12 
REMARK   11  A    between atoms: C_10  and  C_13 
REMARK   12  A    between atoms: C_13  and  C_17 
REMARK   13  A    between atoms: C_21  and  C_23 
REMARK   14  A    between atoms: C_22  and  C_24 
ROOT
HETATM    1  O   LIG     1     -20.408 -16.170 -13.699  1.00  0.00    -0.271 OA
HETATM    2  N   LIG     1     -19.634 -15.596 -11.586  1.00  0.00    -0.345 N 
HETATM    3  C   LIG     1     -19.899 -15.359 -12.928  1.00  0.00     0.252 C 
HETATM    4  H   LIG     1     -19.195 -14.869 -11.029  1.00  0.00     0.163 HD
ENDROOT
BRANCH   2   5
HETATM    5  C   LIG     1     -19.934 -16.848 -10.929  1.00  0.00     0.188 C 
BRANCH   5   6
HETATM    6  C   LIG     1     -18.731 -17.802 -10.972  1.00  0.00     0.074 C 
BRANCH   6   7
HETATM    7  C   LIG     1     -19.024 -19.162 -11.565  1.00  0.00    -0.056 A 
HETATM    8  C   LIG     1     -19.046 -20.290 -10.745  1.00  0.00     0.007 A 
HETATM    9  C   LIG     1     -19.316 -21.545 -11.292  1.00  0.00     0.001 A 
HETATM   10  C   LIG     1     -19.563 -21.671 -12.658  1.00  0.00     0.000 A 
HETATM   11  C   LIG     1     -19.541 -20.543 -13.479  1.00  0.00     0.001 A 
HETATM   12  C   LIG     1     -19.272 -19.289 -12.931  1.00  0.00     0.007 A 
ENDBRANCH   6   7
ENDBRANCH   5   6
BRANCH   5  13
HETATM   13  C   LIG     1     -20.453 -16.649  -9.511  1.00  0.00     0.282 C 
HETATM   14  O   LIG     1     -19.723 -16.334  -8.577  1.00  0.00    -0.263 OA
BRANCH  13  15
HETATM   15  O   LIG     1     -21.793 -16.878  -9.417  1.00  0.00    -0.316 OA
BRANCH  15  16
HETATM   16  C   LIG     1     -22.234 -17.500  -8.206  1.00  0.00     0.205 C 
BRANCH  16  17
HETATM   17  C   LIG     1     -23.361 -16.703  -7.640  1.00  0.00    -0.011 C 
HETATM   18  C   LIG     1     -24.361 -16.198  -8.371  1.00  0.00     0.009 C 
ENDBRANCH  16  17
ENDBRANCH  15  16
ENDBRANCH  13  15
ENDBRANCH   5  13
ENDBRANCH   2   5
BRANCH   3  19
HETATM   19  C   LIG     1     -19.454 -13.966 -13.366  1.00  0.00     0.318 C 
BRANCH  19  20
HETATM   20  N   LIG     1     -19.901 -13.791 -14.749  1.00  0.00     0.092 N 
HETATM   21  H   LIG     1     -20.896 -13.573 -14.762  1.00  0.00     0.313 HD
HETATM   22  H   LIG     1     -19.429 -12.986 -15.160  1.00  0.00     0.313 HD
ENDBRANCH  19  20
BRANCH  19  23
HETATM   23  C   LIG     1     -20.097 -12.904 -12.473  1.00  0.00     0.156 C 
BRANCH  23  24
HETATM   24  C   LIG     1     -21.599 -13.048 -12.457  1.00  0.00     0.261 C 
HETATM   25  O   LIG     1     -22.313 -12.854 -13.433  1.00  0.00    -0.265 OA
BRANCH  24  26
HETATM   26  O   LIG     1     -22.017 -13.450 -11.223  1.00  0.00    -0.318 OA
BRANCH  26  27
HETATM   27  C   LIG     1     -21.339 -12.848 -10.116  1.00  0.00     0.205 C 
BRANCH  27  28
HETATM   28  C   LIG     1     -21.981 -13.310  -8.850  1.00  0.00    -0.011 C 
HETATM   29  C   LIG     1     -21.348 -13.382  -7.674  1.00  0.00     0.009 C 
ENDBRANCH  27  28
ENDBRANCH  26  27
ENDBRANCH  24  26
ENDBRANCH  23  24
ENDBRANCH  19  23
ENDBRANCH   3  19
TORSDOF 14
ENDMDL
MODEL 4
REMARK VINA RESULT:      -7.7      2.791      6.011
REMARK  14 active torsions:
REMARK  status: ('A' for Active; 'I' for Inactive)
REMARK    1  A    between atoms: O_1  and  C_14 
REMARK    2  A    between atoms: O_1  and  C_21 
REMARK    3  A    between atoms: O_4  and  C_17 
REMARK    4  A    between atoms: O_4  and  C_22 
REMARK    5  A    between atoms: N_6  and  C_8 
REMARK       I    between atoms: N_6  and  C_12 
REMARK    6  A    between atoms: N_7  and  C_10 
REMARK    7  A    between atoms: C_8  and  C_9 
REMARK    8  A    between atoms: C_8  and  C_14 
REMARK    9  A    between atoms: C_9  and  C_11 
REMARK   10  A    between atoms: C_10  and  C_12 
REMARK   11  A    between atoms: C_10  and  C_13 
REMARK   12  A    between atoms: C_13  and  C_17 
REMARK   13  A    between atoms: C_21  and  C_23 
REMARK   14  A    between atoms: C_22  and  C_24 
ROOT
HETATM    1  O   LIG     1     -21.286 -16.877 -13.203  1.00  0.00    -0.271 OA
HETATM    2  N   LIG     1     -20.435 -15.465 -11.568  1.00  0.00    -0.345 N 
HETATM    3  C   LIG     1     -20.872 -15.775 -12.848  1.00  0.00     0.252 C 
HETATM    4  H   LIG     1     -20.094 -14.528 -11.372  1.00  0.00     0.163 HD
ENDROOT
BRANCH   2   5
HETATM    5  C   LIG     1     -20.418 -16.420 -10.484  1.00  0.00     0.188 C 
BRANCH   5   6
HETATM    6  C   LIG     1     -19.040 -17.086 -10.349  1.00  0.00     0.074 C 
BRANCH   6   7
HETATM    7  C   LIG     1     -19.050 -18.591 -10.484  1.00  0.00    -0.056 A 
HETATM    8  C   LIG     1     -18.960 -19.395  -9.347  1.00  0.00     0.007 A 
HETATM    9  C   LIG     1     -18.969 -20.784  -9.472  1.00  0.00     0.001 A 
HETATM   10  C   LIG     1     -19.066 -21.370 -10.733  1.00  0.00     0.000 A 
HETATM   11  C   LIG     1     -19.157 -20.567 -11.870  1.00  0.00     0.001 A 
HETATM   12  C   LIG     1     -19.148 -19.178 -11.745  1.00  0.00     0.007 A 
ENDBRANCH   6   7
ENDBRANCH   5   6
BRANCH   5  13
HETATM   13  C   LIG     1     -20.889 -15.812  -9.168  1.00  0.00     0.282 C 
HETATM   14  O   LIG     1     -20.861 -14.606  -8.949  1.00  0.00    -0.263 OA
BRANCH  13  15
HETATM   15  O   LIG     1     -21.315 -16.761  -8.288  1.00  0.00    -0.316 OA
BRANCH  15  16
HETATM   16  C   LIG     1     -21.842 -16.270  -7.051  1.00  0.00     0.205 C 
BRANCH  16  17
HETATM   17  C   LIG     1     -22.886 -17.218  -6.565  1.00  0.00    -0.011 C 
HETATM   18  C   LIG     1     -24.192 -17.088  -6.821  1.00  0.00     0.009 C 
ENDBRANCH  16  17
ENDBRANCH  15  16
ENDBRANCH  13  15
ENDBRANCH   5  13
ENDBRANCH   2   5
BRANCH   3  19
HETATM   19  C   LIG     1     -20.753 -14.589 -13.802  1.00  0.00     0.318 C 
BRANCH  19  20
HETATM   20  N   LIG     1     -20.733 -15.134 -15.160  1.00  0.00     0.092 N 
HETATM   21  H   LIG     1     -21.650 -15.518 -15.388  1.00  0.00     0.313 HD
HETATM   22  H   LIG     1     -20.569 -14.381 -15.827  1.00  0.00     0.313 HD
ENDBRANCH  19  20
BRANCH  19  23
HETATM   23  C   LIG     1     -21.953 -13.657 -13.632  1.00  0.00     0.156 C 
BRANCH  23  24
HETATM   24  C   LIG     1     -22.997 -13.920 -14.691  1.00  0.00     0.261 C 
HETATM   25  O   LIG     1     -23.701 -14.922 -14.719  1.00  0.00    -0.265 OA
BRANCH  24  26
HETATM   26  O   LIG     1     -23.048 -12.876 -15.567  1.00  0.00    -0.318 OA
BRANCH  26  27
HETATM   27  C   LIG     1     -24.300 -12.692 -16.235  1.00  0.00     0.205 C 
BRANCH  27  28
HETATM   28  C   LIG     1     -24.075 -12.773 -17.708  1.00  0.00    -0.011 C 
HETATM   29  C   LIG     1     -23.786 -13.905 -18.359  1.00  0.00     0.009 C 
ENDBRANCH  27  28
ENDBRANCH  26  27
ENDBRANCH  24  26
ENDBRANCH  23  24
ENDBRANCH  19  23
ENDBRANCH   3  19
TORSDOF 14
ENDMDL
MODEL 5
REMARK VINA RESULT:      -7.6      2.434      5.116
REMARK  14 active torsions:
REMARK  status: ('A' for Active; 'I' for Inactive)
REMARK    1  A    between atoms: O_1  and  C_14 
REMARK    2  A    between atoms: O_1  and  C_21 
REMARK    3  A    between atoms: O_4  and  C_17 
REMARK    4  A    between atoms: O_4  and  C_22 
REMARK    5  A    between atoms: N_6  and  C_8 
REMARK       I    between atoms: N_6  and  C_12 
REMARK    6  A    between atoms: N_7  and  C_10 
REMARK    7  A    between atoms: C_8  and  C_9 
REMARK    8  A    between atoms: C_8  and  C_14 
REMARK    9  A    between atoms: C_9  and  C_11 
REMARK   10  A    between atoms: C_10  and  C_12 
REMARK   11  A    between atoms: C_10  and  C_13 
REMARK   12  A    between atoms: C_13  and  C_17 
REMARK   13  A    between atoms: C_21  and  C_23 
REMARK   14  A    between atoms: C_22  and  C_24 
ROOT
HETATM    1  O   LIG     1     -22.923 -15.300 -10.213  1.00  0.00    -0.271 OA
HETATM    2  N   LIG     1     -20.664 -15.555 -10.681  1.00  0.00    -0.345 N 
HETATM    3  C   LIG     1     -21.892 -14.915 -10.761  1.00  0.00     0.252 C 
HETATM    4  H   LIG     1     -19.868 -15.170 -11.184  1.00  0.00     0.163 HD
ENDROOT
BRANCH   2   5
HETATM    5  C   LIG     1     -20.451 -16.771  -9.930  1.00  0.00     0.188 C 
BRANCH   5   6
HETATM    6  C   LIG     1     -19.072 -17.378 -10.229  1.00  0.00     0.074 C 
BRANCH   6   7
HETATM    7  C   LIG     1     -19.104 -18.805 -10.727  1.00  0.00    -0.056 A 
HETATM    8  C   LIG     1     -19.017 -19.862  -9.821  1.00  0.00     0.007 A 
HETATM    9  C   LIG     1     -19.045 -21.179 -10.281  1.00  0.00     0.001 A 
HETATM   10  C   LIG     1     -19.161 -21.438 -11.647  1.00  0.00     0.000 A 
HETATM   11  C   LIG     1     -19.249 -20.381 -12.553  1.00  0.00     0.001 A 
HETATM   12  C   LIG     1     -19.220 -19.065 -12.092  1.00  0.00     0.007 A 
ENDBRANCH   6   7
ENDBRANCH   5   6
BRANCH   5  13
HETATM   13  C   LIG     1     -20.676 -16.576  -8.436  1.00  0.00     0.282 C 
HETATM   14  O   LIG     1     -20.078 -15.729  -7.781  1.00  0.00    -0.263 OA
BRANCH  13  15
HETATM   15  O   LIG     1     -21.590 -17.455  -7.935  1.00  0.00    -0.316 OA
BRANCH  15  16
HETATM   16  C   LIG     1     -21.827 -17.369  -6.526  1.00  0.00     0.205 C 
BRANCH  16  17
HETATM   17  C   LIG     1     -23.298 -17.266  -6.293  1.00  0.00    -0.011 C 
HETATM   18  C   LIG     1     -24.180 -16.905  -7.230  1.00  0.00     0.009 C 
ENDBRANCH  16  17
ENDBRANCH  15  16
ENDBRANCH  13  15
ENDBRANCH   5  13
ENDBRANCH   2   5
BRANCH   3  19
HETATM   19  C   LIG     1     -21.839 -13.671 -11.645  1.00  0.00     0.318 C 
BRANCH  19  20
HETATM   20  N   LIG     1     -20.432 -13.287 -11.756  1.00  0.00     0.092 N 
HETATM   21  H   LIG     1     -20.352 -12.438 -12.315  1.00  0.00     0.313 HD
HETATM   22  H   LIG     1     -20.070 -13.052 -10.832  1.00  0.00     0.313 HD
ENDBRANCH  19  20
BRANCH  19  23
HETATM   23  C   LIG     1     -22.404 -13.988 -13.030  1.00  0.00     0.156 C 
BRANCH  23  24
HETATM   24  C   LIG     1     -21.300 -14.358 -13.992  1.00  0.00     0.261 C 
HETATM   25  O   LIG     1     -20.897 -13.620 -14.883  1.00  0.00    -0.265 OA
BRANCH  24  26
HETATM   26  O   LIG     1     -20.816 -15.597 -13.694  1.00  0.00    -0.318 OA
BRANCH  26  27
HETATM   27  C   LIG     1     -19.748 -16.059 -14.526  1.00  0.00     0.205 C 
BRANCH  27  28
HETATM   28  C   LIG     1     -18.466 -15.946 -13.769  1.00  0.00    -0.011 C 
HETATM   29  C   LIG     1     -17.701 -14.850 -13.755  1.00  0.00     0.009 C 
ENDBRANCH  27  28
ENDBRANCH  26  27
ENDBRANCH  24  26
ENDBRANCH  23  24
ENDBRANCH  19  23
ENDBRANCH   3  19
TORSDOF 14
ENDMDL
MODEL 6
REMARK VINA RESULT:      -7.5      2.709      5.867
REMARK  14 active torsions:
REMARK  status: ('A' for Active; 'I' for Inactive)
REMARK    1  A    between atoms: O_1  and  C_14 
REMARK    2  A    between atoms: O_1  and  C_21 
REMARK    3  A    between atoms: O_4  and  C_17 
REMARK    4  A    between atoms: O_4  and  C_22 
REMARK    5  A    between atoms: N_6  and  C_8 
REMARK       I    between atoms: N_6  and  C_12 
REMARK    6  A    between atoms: N_7  and  C_10 
REMARK    7  A    between atoms: C_8  and  C_9 
REMARK    8  A    between atoms: C_8  and  C_14 
REMARK    9  A    between atoms: C_9  and  C_11 
REMARK   10  A    between atoms: C_10  and  C_12 
REMARK   11  A    between atoms: C_10  and  C_13 
REMARK   12  A    between atoms: C_13  and  C_17 
REMARK   13  A    between atoms: C_21  and  C_23 
REMARK   14  A    between atoms: C_22  and  C_24 
ROOT
HETATM    1  O   LIG     1     -21.305 -13.227  -9.354  1.00  0.00    -0.271 OA
HETATM    2  N   LIG     1     -20.884 -14.735 -11.068  1.00  0.00    -0.345 N 
HETATM    3  C   LIG     1     -21.177 -13.482 -10.550  1.00  0.00     0.252 C 
HETATM    4  H   LIG     1     -20.813 -14.853 -12.075  1.00  0.00     0.163 HD
ENDROOT
BRANCH   2   5
HETATM    5  C   LIG     1     -20.691 -15.907 -10.246  1.00  0.00     0.188 C 
BRANCH   5   6
HETATM    6  C   LIG     1     -21.972 -16.751 -10.168  1.00  0.00     0.074 C 
BRANCH   6   7
HETATM    7  C   LIG     1     -22.567 -16.870  -8.783  1.00  0.00    -0.056 A 
HETATM    8  C   LIG     1     -23.920 -16.597  -8.578  1.00  0.00     0.007 A 
HETATM    9  C   LIG     1     -24.468 -16.707  -7.300  1.00  0.00     0.001 A 
HETATM   10  C   LIG     1     -23.664 -17.089  -6.227  1.00  0.00     0.000 A 
HETATM   11  C   LIG     1     -22.312 -17.363  -6.431  1.00  0.00     0.001 A 
HETATM   12  C   LIG     1     -21.764 -17.254  -7.709  1.00  0.00     0.007 A 
ENDBRANCH   6   7
ENDBRANCH   5   6
BRANCH   5  13
HETATM   13  C   LIG     1     -19.490 -16.734 -10.687  1.00  0.00     0.282 C 
HETATM   14  O   LIG     1     -18.826 -16.459 -11.681  1.00  0.00    -0.263 OA
BRANCH  13  15
HETATM   15  O   LIG     1     -19.269 -17.799  -9.865  1.00  0.00    -0.316 OA
BRANCH  15  16
HETATM   16  C   LIG     1     -19.163 -19.071 -10.511  1.00  0.00     0.205 C 
BRANCH  16  17
HETATM   17  C   LIG     1     -18.938 -20.119  -9.472  1.00  0.00    -0.011 C 
HETATM   18  C   LIG     1     -19.297 -19.991  -8.191  1.00  0.00     0.009 C 
ENDBRANCH  16  17
ENDBRANCH  15  16
ENDBRANCH  13  15
ENDBRANCH   5  13
ENDBRANCH   2   5
BRANCH   3  19
HETATM   19  C   LIG     1     -21.360 -12.433 -11.644  1.00  0.00     0.318 C 
BRANCH  19  20
HETATM   20  N   LIG     1     -20.419 -12.765 -12.714  1.00  0.00     0.092 N 
HETATM   21  H   LIG     1     -19.468 -12.754 -12.349  1.00  0.00     0.313 HD
HETATM   22  H   LIG     1     -20.589 -13.718 -13.033  1.00  0.00     0.313 HD
ENDBRANCH  19  20
BRANCH  19  23
HETATM   23  C   LIG     1     -22.792 -12.474 -12.177  1.00  0.00     0.156 C 
BRANCH  23  24
HETATM   24  C   LIG     1     -22.883 -13.333 -13.415  1.00  0.00     0.261 C 
HETATM   25  O   LIG     1     -22.816 -14.556 -13.403  1.00  0.00    -0.265 OA
BRANCH  24  26
HETATM   26  O   LIG     1     -23.080 -12.550 -14.514  1.00  0.00    -0.318 OA
BRANCH  26  27
HETATM   27  C   LIG     1     -22.767 -13.159 -15.770  1.00  0.00     0.205 C 
BRANCH  27  28
HETATM   28  C   LIG     1     -23.937 -13.008 -16.683  1.00  0.00    -0.011 C 
HETATM   29  C   LIG     1     -23.984 -13.499 -17.926  1.00  0.00     0.009 C 
ENDBRANCH  27  28
ENDBRANCH  26  27
ENDBRANCH  24  26
ENDBRANCH  23  24
ENDBRANCH  19  23
ENDBRANCH   3  19
TORSDOF 14
ENDMDL
MODEL 7
REMARK VINA RESULT:      -7.5      2.940      6.138
REMARK  14 active torsions:
REMARK  status: ('A' for Active; 'I' for Inactive)
REMARK    1  A    between atoms: O_1  and  C_14 
REMARK    2  A    between atoms: O_1  and  C_21 
REMARK    3  A    between atoms: O_4  and  C_17 
REMARK    4  A    between atoms: O_4  and  C_22 
REMARK    5  A    between atoms: N_6  and  C_8 
REMARK       I    between atoms: N_6  and  C_12 
REMARK    6  A    between atoms: N_7  and  C_10 
REMARK    7  A    between atoms: C_8  and  C_9 
REMARK    8  A    between atoms: C_8  and  C_14 
REMARK    9  A    between atoms: C_9  and  C_11 
REMARK   10  A    between atoms: C_10  and  C_12 
REMARK   11  A    between atoms: C_10  and  C_13 
REMARK   12  A    between atoms: C_13  and  C_17 
REMARK   13  A    between atoms: C_21  and  C_23 
REMARK   14  A    between atoms: C_22  and  C_24 
ROOT
HETATM    1  O   LIG     1     -21.031 -16.102 -13.909  1.00  0.00    -0.271 OA
HETATM    2  N   LIG     1     -19.998 -15.207 -12.032  1.00  0.00    -0.345 N 
HETATM    3  C   LIG     1     -20.544 -15.147 -13.307  1.00  0.00     0.252 C 
HETATM    4  H   LIG     1     -19.603 -14.366 -11.620  1.00  0.00     0.163 HD
ENDROOT
BRANCH   2   5
HETATM    5  C   LIG     1     -19.939 -16.422 -11.252  1.00  0.00     0.188 C 
BRANCH   5   6
HETATM    6  C   LIG     1     -18.703 -17.258 -11.616  1.00  0.00     0.074 C 
BRANCH   6   7
HETATM    7  C   LIG     1     -18.992 -18.708 -11.935  1.00  0.00    -0.056 A 
HETATM    8  C   LIG     1     -18.967 -19.664 -10.919  1.00  0.00     0.007 A 
HETATM    9  C   LIG     1     -19.233 -21.001 -11.214  1.00  0.00     0.001 A 
HETATM   10  C   LIG     1     -19.524 -21.382 -12.524  1.00  0.00     0.000 A 
HETATM   11  C   LIG     1     -19.550 -20.426 -13.539  1.00  0.00     0.001 A 
HETATM   12  C   LIG     1     -19.284 -19.089 -13.244  1.00  0.00     0.007 A 
ENDBRANCH   6   7
ENDBRANCH   5   6
BRANCH   5  13
HETATM   13  C   LIG     1     -20.026 -16.155  -9.755  1.00  0.00     0.282 C 
HETATM   14  O   LIG     1     -19.469 -16.864  -8.923  1.00  0.00    -0.263 OA
BRANCH  13  15
HETATM   15  O   LIG     1     -20.796 -15.067  -9.471  1.00  0.00    -0.316 OA
BRANCH  15  16
HETATM   16  C   LIG     1     -21.015 -14.807  -8.081  1.00  0.00     0.205 C 
BRANCH  16  17
HETATM   17  C   LIG     1     -21.204 -13.339  -7.891  1.00  0.00    -0.011 C 
HETATM   18  C   LIG     1     -20.989 -12.700  -6.736  1.00  0.00     0.009 C 
ENDBRANCH  16  17
ENDBRANCH  15  16
ENDBRANCH  13  15
ENDBRANCH   5  13
ENDBRANCH   2   5
BRANCH   3  19
HETATM   19  C   LIG     1     -20.449 -13.749 -13.911  1.00  0.00     0.318 C 
BRANCH  19  20
HETATM   20  N   LIG     1     -19.101 -13.615 -14.465  1.00  0.00     0.092 N 
HETATM   21  H   LIG     1     -18.549 -14.437 -14.225  1.00  0.00     0.313 HD
HETATM   22  H   LIG     1     -19.152 -13.596 -15.483  1.00  0.00     0.313 HD
ENDBRANCH  19  20
BRANCH  19  23
HETATM   23  C   LIG     1     -21.487 -13.584 -15.021  1.00  0.00     0.156 C 
BRANCH  23  24
HETATM   24  C   LIG     1     -22.768 -12.996 -14.480  1.00  0.00     0.261 C 
HETATM   25  O   LIG     1     -23.071 -12.997 -13.293  1.00  0.00    -0.265 OA
BRANCH  24  26
HETATM   26  O   LIG     1     -23.497 -12.451 -15.495  1.00  0.00    -0.318 OA
BRANCH  26  27
HETATM   27  C   LIG     1     -24.746 -13.092 -15.772  1.00  0.00     0.205 C 
BRANCH  27  28
HETATM   28  C   LIG     1     -24.583 -13.963 -16.973  1.00  0.00    -0.011 C 
HETATM   29  C   LIG     1     -23.908 -13.604 -18.070  1.00  0.00     0.009 C 
ENDBRANCH  27  28
ENDBRANCH  26  27
ENDBRANCH  24  26
ENDBRANCH  23  24
ENDBRANCH  19  23
ENDBRANCH   3  19
TORSDOF 14
ENDMDL
MODEL 8
REMARK VINA RESULT:      -7.5      2.132      3.692
REMARK  14 active torsions:
REMARK  status: ('A' for Active; 'I' for Inactive)
REMARK    1  A    between atoms: O_1  and  C_14 
REMARK    2  A    between atoms: O_1  and  C_21 
REMARK    3  A    between atoms: O_4  and  C_17 
REMARK    4  A    between atoms: O_4  and  C_22 
REMARK    5  A    between atoms: N_6  and  C_8 
REMARK       I    between atoms: N_6  and  C_12 
REMARK    6  A    between atoms: N_7  and  C_10 
REMARK    7  A    between atoms: C_8  and  C_9 
REMARK    8  A    between atoms: C_8  and  C_14 
REMARK    9  A    between atoms: C_9  and  C_11 
REMARK   10  A    between atoms: C_10  and  C_12 
REMARK   11  A    between atoms: C_10  and  C_13 
REMARK   12  A    between atoms: C_13  and  C_17 
REMARK   13  A    between atoms: C_21  and  C_23 
REMARK   14  A    between atoms: C_22  and  C_24 
ROOT
HETATM    1  O   LIG     1     -21.637 -16.397 -12.501  1.00  0.00    -0.271 OA
HETATM    2  N   LIG     1     -20.989 -15.354 -10.531  1.00  0.00    -0.345 N 
HETATM    3  C   LIG     1     -20.884 -16.308 -11.532  1.00  0.00     0.252 C 
HETATM    4  H   LIG     1     -20.328 -15.369  -9.758  1.00  0.00     0.163 HD
ENDROOT
BRANCH   2   5
HETATM    5  C   LIG     1     -22.012 -14.334 -10.511  1.00  0.00     0.188 C 
BRANCH   5   6
HETATM    6  C   LIG     1     -22.404 -13.965  -9.072  1.00  0.00     0.074 C 
BRANCH   6   7
HETATM    7  C   LIG     1     -22.860 -15.130  -8.222  1.00  0.00    -0.056 A 
HETATM    8  C   LIG     1     -24.153 -15.634  -8.364  1.00  0.00     0.007 A 
HETATM    9  C   LIG     1     -24.573 -16.708  -7.579  1.00  0.00     0.001 A 
HETATM   10  C   LIG     1     -23.700 -17.278  -6.653  1.00  0.00     0.000 A 
HETATM   11  C   LIG     1     -22.407 -16.775  -6.512  1.00  0.00     0.001 A 
HETATM   12  C   LIG     1     -21.987 -15.701  -7.296  1.00  0.00     0.007 A 
ENDBRANCH   6   7
ENDBRANCH   5   6
BRANCH   5  13
HETATM   13  C   LIG     1     -21.626 -13.108 -11.329  1.00  0.00     0.282 C 
HETATM   14  O   LIG     1     -20.514 -12.595 -11.267  1.00  0.00    -0.263 OA
BRANCH  13  15
HETATM   15  O   LIG     1     -22.656 -12.661 -12.101  1.00  0.00    -0.316 OA
BRANCH  15  16
HETATM   16  C   LIG     1     -22.737 -13.222 -13.416  1.00  0.00     0.205 C 
BRANCH  16  17
HETATM   17  C   LIG     1     -23.843 -12.550 -14.157  1.00  0.00    -0.011 C 
HETATM   18  C   LIG     1     -24.153 -12.807 -15.432  1.00  0.00     0.009 C 
ENDBRANCH  16  17
ENDBRANCH  15  16
ENDBRANCH  13  15
ENDBRANCH   5  13
ENDBRANCH   2   5
BRANCH   3  19
HETATM   19  C   LIG     1     -19.732 -17.279 -11.287  1.00  0.00     0.318 C 
BRANCH  19  20
HETATM   20  N   LIG     1     -18.495 -16.559 -11.590  1.00  0.00     0.092 N 
HETATM   21  H   LIG     1     -17.707 -17.031 -11.149  1.00  0.00     0.313 HD
HETATM   22  H   LIG     1     -18.319 -16.592 -12.594  1.00  0.00     0.313 HD
ENDBRANCH  19  20
BRANCH  19  23
HETATM   23  C   LIG     1     -19.728 -17.731  -9.826  1.00  0.00     0.156 C 
BRANCH  23  24
HETATM   24  C   LIG     1     -19.141 -19.115  -9.690  1.00  0.00     0.261 C 
HETATM   25  O   LIG     1     -18.950 -19.671  -8.615  1.00  0.00    -0.265 OA
BRANCH  24  26
HETATM   26  O   LIG     1     -18.896 -19.642 -10.923  1.00  0.00    -0.318 OA
BRANCH  26  27
HETATM   27  C   LIG     1     -19.166 -21.040 -11.061  1.00  0.00     0.205 C 
BRANCH  27  28
HETATM   28  C   LIG     1     -19.489 -21.329 -12.489  1.00  0.00    -0.011 C 
HETATM   29  C   LIG     1     -19.558 -20.394 -13.443  1.00  0.00     0.009 C 
ENDBRANCH  27  28
ENDBRANCH  26  27
ENDBRANCH  24  26
ENDBRANCH  23  24
ENDBRANCH  19  23
ENDBRANCH   3  19
TORSDOF 14
ENDMDL
MODEL 9
REMARK VINA RESULT:      -7.3      2.693      5.859
REMARK  14 active torsions:
REMARK  status: ('A' for Active; 'I' for Inactive)
REMARK    1  A    between atoms: O_1  and  C_14 
REMARK    2  A    between atoms: O_1  and  C_21 
REMARK    3  A    between atoms: O_4  and  C_17 
REMARK    4  A    between atoms: O_4  and  C_22 
REMARK    5  A    between atoms: N_6  and  C_8 
REMARK       I    between atoms: N_6  and  C_12 
REMARK    6  A    between atoms: N_7  and  C_10 
REMARK    7  A    between atoms: C_8  and  C_9 
REMARK    8  A    between atoms: C_8  and  C_14 
REMARK    9  A    between atoms: C_9  and  C_11 
REMARK   10  A    between atoms: C_10  and  C_12 
REMARK   11  A    between atoms: C_10  and  C_13 
REMARK   12  A    between atoms: C_13  and  C_17 
REMARK   13  A    between atoms: C_21  and  C_23 
REMARK   14  A    between atoms: C_22  and  C_24 
ROOT
HETATM    1  O   LIG     1     -23.010 -16.231 -10.214  1.00  0.00    -0.271 OA
HETATM    2  N   LIG     1     -20.802 -16.448 -10.897  1.00  0.00    -0.345 N 
HETATM    3  C   LIG     1     -22.087 -15.932 -10.970  1.00  0.00     0.252 C 
HETATM    4  H   LIG     1     -20.107 -16.153 -11.578  1.00  0.00     0.163 HD
ENDROOT
BRANCH   2   5
HETATM    5  C   LIG     1     -20.391 -17.414  -9.905  1.00  0.00     0.188 C 
BRANCH   5   6
HETATM    6  C   LIG     1     -19.035 -18.042 -10.264  1.00  0.00     0.074 C 
BRANCH   6   7
HETATM    7  C   LIG     1     -19.123 -19.390 -10.942  1.00  0.00    -0.056 A 
HETATM    8  C   LIG     1     -19.043 -20.559 -10.184  1.00  0.00     0.007 A 
HETATM    9  C   LIG     1     -19.123 -21.803 -10.810  1.00  0.00     0.001 A 
HETATM   10  C   LIG     1     -19.282 -21.879 -12.193  1.00  0.00     0.000 A 
HETATM   11  C   LIG     1     -19.363 -20.711 -12.951  1.00  0.00     0.001 A 
HETATM   12  C   LIG     1     -19.283 -19.467 -12.325  1.00  0.00     0.007 A 
ENDBRANCH   6   7
ENDBRANCH   5   6
BRANCH   5  13
HETATM   13  C   LIG     1     -20.396 -16.836  -8.495  1.00  0.00     0.282 C 
HETATM   14  O   LIG     1     -19.877 -15.759  -8.220  1.00  0.00    -0.263 OA
BRANCH  13  15
HETATM   15  O   LIG     1     -21.018 -17.659  -7.604  1.00  0.00    -0.316 OA
BRANCH  15  16
HETATM   16  C   LIG     1     -21.664 -17.010  -6.505  1.00  0.00     0.205 C 
BRANCH  16  17
HETATM   17  C   LIG     1     -23.022 -17.602  -6.329  1.00  0.00    -0.011 C 
HETATM   18  C   LIG     1     -24.146 -17.044  -6.791  1.00  0.00     0.009 C 
ENDBRANCH  16  17
ENDBRANCH  15  16
ENDBRANCH  13  15
ENDBRANCH   5  13
ENDBRANCH   2   5
BRANCH   3  19
HETATM   19  C   LIG     1     -22.253 -14.955 -12.131  1.00  0.00     0.318 C 
BRANCH  19  20
HETATM   20  N   LIG     1     -22.425 -13.624 -11.548  1.00  0.00     0.092 N 
HETATM   21  H   LIG     1     -21.649 -13.025 -11.827  1.00  0.00     0.313 HD
HETATM   22  H   LIG     1     -23.266 -13.192 -11.929  1.00  0.00     0.313 HD
ENDBRANCH  19  20
BRANCH  19  23
HETATM   23  C   LIG     1     -21.007 -14.978 -13.018  1.00  0.00     0.156 C 
BRANCH  23  24
HETATM   24  C   LIG     1     -20.716 -13.606 -13.578  1.00  0.00     0.261 C 
HETATM   25  O   LIG     1     -19.694 -12.976 -13.339  1.00  0.00    -0.265 OA
BRANCH  24  26
HETATM   26  O   LIG     1     -21.733 -13.210 -14.395  1.00  0.00    -0.318 OA
BRANCH  26  27
HETATM   27  C   LIG     1     -21.594 -13.570 -15.772  1.00  0.00     0.205 C 
BRANCH  27  28
HETATM   28  C   LIG     1     -22.900 -14.101 -16.265  1.00  0.00    -0.011 C 
HETATM   29  C   LIG     1     -23.910 -14.459 -15.465  1.00  0.00     0.009 C 
ENDBRANCH  27  28
ENDBRANCH  26  27
ENDBRANCH  24  26
ENDBRANCH  23  24
ENDBRANCH  19  23
ENDBRANCH   3  19
TORSDOF 14
ENDMDL
