MODEL 1
REMARK VINA RESULT:     -10.1      0.000      0.000
REMARK  13 active torsions:
REMARK  status: ('A' for Active; 'I' for Inactive)
REMARK    1  A    between atoms: O_1  and  C_12 
REMARK    2  A    between atoms: O_1  and  C_17 
REMARK    3  A    between atoms: N_5  and  C_18 
REMARK       I    between atoms: N_5  and  C_32 
REMARK    4  A    between atoms: C_6  and  C_11 
REMARK    5  A    between atoms: C_6  and  C_12 
REMARK    6  A    between atoms: C_9  and  C_14 
REMARK    7  A    between atoms: C_11  and  C_13 
REMARK    8  A    between atoms: C_13  and  C_15 
REMARK    9  A    between atoms: C_15  and  C_16 
REMARK   10  A    between atoms: C_16  and  C_18 
REMARK   11  A    between atoms: C_17  and  C_21 
REMARK   12  A    between atoms: C_17  and  C_22 
REMARK   13  A    between atoms: C_17  and  C_23 
ROOT
HETATM    1  C   LIG     1     -22.025 -15.226  -9.536  1.00  0.00    -0.018 C 
HETATM    2  C   LIG     1     -20.951 -14.575  -8.651  1.00  0.00     0.024 C 
HETATM    3  C   LIG     1     -23.234 -14.313  -9.291  1.00  0.00     0.012 C 
HETATM    4  C   LIG     1     -21.202 -13.059  -8.758  1.00  0.00     0.056 C 
HETATM    5  C   LIG     1     -22.656 -12.899  -9.237  1.00  0.00     0.013 C 
ENDROOT
BRANCH   1   6
HETATM    6  C   LIG     1     -22.315 -16.665  -9.104  1.00  0.00     0.012 C 
BRANCH   6   7
HETATM    7  C   LIG     1     -21.338 -17.134  -8.024  1.00  0.00     0.001 C 
BRANCH   7   8
HETATM    8  C   LIG     1     -20.891 -18.578  -8.271  1.00  0.00     0.006 C 
BRANCH   8   9
HETATM    9  C   LIG     1     -19.696 -18.700  -9.246  1.00  0.00     0.004 C 
HETATM   10  C   LIG     1     -18.869 -17.408  -9.286  1.00  0.00     0.012 C 
BRANCH   9  11
HETATM   11  C   LIG     1     -18.847 -19.954  -8.905  1.00  0.00     0.084 C 
HETATM   12  C   LIG     1     -18.979 -20.390  -7.448  1.00  0.00     0.032 C 
BRANCH  11  13
HETATM   13  N   LIG     1     -19.130 -21.070  -9.778  1.00  0.00    -0.357 N 
HETATM   14  C   LIG     1     -19.134 -20.969 -11.159  1.00  0.00     0.213 C 
HETATM   15  O   LIG     1     -18.906 -19.951 -11.808  1.00  0.00    -0.274 OA
HETATM   16  C   LIG     1     -19.434 -22.285 -11.826  1.00  0.00     0.117 C 
HETATM   17  H   LIG     1     -19.260 -21.986  -9.359  1.00  0.00     0.162 HD
ENDBRANCH  11  13
ENDBRANCH   9  11
ENDBRANCH   8   9
ENDBRANCH   7   8
ENDBRANCH   6   7
ENDBRANCH   1   6
BRANCH   1  18
HETATM   18  C   LIG     1     -21.607 -15.218 -11.016  1.00  0.00     0.179 C 
BRANCH  18  19
HETATM   19  O   LIG     1     -22.660 -15.779 -11.772  1.00  0.00    -0.365 OA
BRANCH  19  20
HETATM   20  C   LIG     1     -22.364 -15.793 -13.166  1.00  0.00     0.142 C 
BRANCH  20  21
HETATM   21  C   LIG     1     -20.826 -15.792 -13.315  1.00  0.00    -0.015 A 
HETATM   22  C   LIG     1     -20.076 -16.852 -12.806  1.00  0.00     0.011 A 
HETATM   23  C   LIG     1     -18.687 -16.851 -12.941  1.00  0.00     0.001 A 
HETATM   24  C   LIG     1     -18.050 -15.791 -13.584  1.00  0.00     0.000 A 
HETATM   25  C   LIG     1     -18.800 -14.731 -14.093  1.00  0.00     0.001 A 
HETATM   26  C   LIG     1     -20.188 -14.732 -13.958  1.00  0.00     0.011 A 
ENDBRANCH  20  21
BRANCH  20  27
HETATM   27  C   LIG     1     -23.035 -17.074 -13.706  1.00  0.00    -0.015 A 
HETATM   28  C   LIG     1     -24.285 -17.463 -13.224  1.00  0.00     0.011 A 
HETATM   29  C   LIG     1     -24.891 -18.621 -13.713  1.00  0.00     0.001 A 
HETATM   30  C   LIG     1     -24.248 -19.388 -14.683  1.00  0.00     0.000 A 
HETATM   31  C   LIG     1     -22.999 -18.999 -15.165  1.00  0.00     0.001 A 
HETATM   32  C   LIG     1     -22.392 -17.842 -14.677  1.00  0.00     0.011 A 
ENDBRANCH  20  27
BRANCH  20  33
HETATM   33  C   LIG     1     -23.020 -14.511 -13.725  1.00  0.00    -0.015 A 
HETATM   34  C   LIG     1     -23.057 -13.351 -12.951  1.00  0.00     0.011 A 
HETATM   35  C   LIG     1     -23.649 -12.194 -13.457  1.00  0.00     0.001 A 
HETATM   36  C   LIG     1     -24.205 -12.196 -14.736  1.00  0.00     0.000 A 
HETATM   37  C   LIG     1     -24.167 -13.356 -15.510  1.00  0.00     0.001 A 
HETATM   38  C   LIG     1     -23.576 -14.513 -15.005  1.00  0.00     0.011 A 
ENDBRANCH  20  33
ENDBRANCH  19  20
ENDBRANCH  18  19
ENDBRANCH   1  18
BRANCH   4  39
HETATM   39  C   LIG     1     -20.902 -12.322  -7.467  1.00  0.00     0.107 A 
HETATM   40  N   LIG     1     -21.905 -11.821  -6.684  1.00  0.00    -0.353 N 
HETATM   41  C   LIG     1     -21.321 -11.221  -5.605  1.00  0.00     0.109 A 
HETATM   42  H   LIG     1     -22.898 -11.883  -6.868  1.00  0.00     0.166 HD
HETATM   43  C   LIG     1     -19.971 -11.393  -5.795  1.00  0.00     0.135 A 
HETATM   44  N   LIG     1     -19.716 -12.078  -6.956  1.00  0.00    -0.246 NA
ENDBRANCH   4  39
TORSDOF 13
ENDMDL
MODEL 2
REMARK VINA RESULT:     -10.0      0.142      3.483
REMARK  13 active torsions:
REMARK  status: ('A' for Active; 'I' for Inactive)
REMARK    1  A    between atoms: O_1  and  C_12 
REMARK    2  A    between atoms: O_1  and  C_17 
REMARK    3  A    between atoms: N_5  and  C_18 
REMARK       I    between atoms: N_5  and  C_32 
REMARK    4  A    between atoms: C_6  and  C_11 
REMARK    5  A    between atoms: C_6  and  C_12 
REMARK    6  A    between atoms: C_9  and  C_14 
REMARK    7  A    between atoms: C_11  and  C_13 
REMARK    8  A    between atoms: C_13  and  C_15 
REMARK    9  A    between atoms: C_15  and  C_16 
REMARK   10  A    between atoms: C_16  and  C_18 
REMARK   11  A    between atoms: C_17  and  C_21 
REMARK   12  A    between atoms: C_17  and  C_22 
REMARK   13  A    between atoms: C_17  and  C_23 
ROOT
HETATM    1  C   LIG     1     -22.027 -15.183  -9.668  1.00  0.00    -0.018 C 
HETATM    2  C   LIG     1     -20.933 -14.510  -8.824  1.00  0.00     0.024 C 
HETATM    3  C   LIG     1     -23.269 -14.367  -9.286  1.00  0.00     0.012 C 
HETATM    4  C   LIG     1     -21.285 -13.010  -8.825  1.00  0.00     0.056 C 
HETATM    5  C   LIG     1     -22.778 -12.923  -9.192  1.00  0.00     0.013 C 
ENDROOT
BRANCH   1   6
HETATM    6  C   LIG     1     -22.193 -16.659  -9.300  1.00  0.00     0.012 C 
BRANCH   6   7
HETATM    7  C   LIG     1     -21.301 -17.048  -8.120  1.00  0.00     0.001 C 
BRANCH   7   8
HETATM    8  C   LIG     1     -20.830 -18.501  -8.237  1.00  0.00     0.006 C 
BRANCH   8   9
HETATM    9  C   LIG     1     -19.655 -18.695  -9.225  1.00  0.00     0.004 C 
HETATM   10  C   LIG     1     -18.784 -17.435  -9.319  1.00  0.00     0.012 C 
BRANCH   9  11
HETATM   11  C   LIG     1     -18.846 -19.968  -8.857  1.00  0.00     0.084 C 
HETATM   12  C   LIG     1     -19.037 -20.402  -7.406  1.00  0.00     0.032 C 
BRANCH  11  13
HETATM   13  N   LIG     1     -19.121 -21.076  -9.741  1.00  0.00    -0.357 N 
HETATM   14  C   LIG     1     -19.129 -20.961 -11.121  1.00  0.00     0.213 C 
HETATM   15  O   LIG     1     -18.911 -19.936 -11.760  1.00  0.00    -0.274 OA
HETATM   16  C   LIG     1     -19.420 -22.273 -11.801  1.00  0.00     0.117 C 
HETATM   17  H   LIG     1     -19.243 -21.998  -9.331  1.00  0.00     0.162 HD
ENDBRANCH  11  13
ENDBRANCH   9  11
ENDBRANCH   8   9
ENDBRANCH   7   8
ENDBRANCH   6   7
ENDBRANCH   1   6
BRANCH   1  18
HETATM   18  C   LIG     1     -21.721 -15.069 -11.170  1.00  0.00     0.179 C 
BRANCH  18  19
HETATM   19  O   LIG     1     -22.700 -15.803 -11.875  1.00  0.00    -0.365 OA
BRANCH  19  20
HETATM   20  C   LIG     1     -22.444 -15.822 -13.276  1.00  0.00     0.142 C 
BRANCH  20  21
HETATM   21  C   LIG     1     -23.086 -14.555 -13.883  1.00  0.00    -0.015 A 
HETATM   22  C   LIG     1     -23.098 -13.363 -13.158  1.00  0.00     0.011 A 
HETATM   23  C   LIG     1     -23.678 -12.218 -13.707  1.00  0.00     0.001 A 
HETATM   24  C   LIG     1     -24.244 -12.266 -14.980  1.00  0.00     0.000 A 
HETATM   25  C   LIG     1     -24.232 -13.458 -15.705  1.00  0.00     0.001 A 
HETATM   26  C   LIG     1     -23.653 -14.602 -15.156  1.00  0.00     0.011 A 
ENDBRANCH  20  21
BRANCH  20  27
HETATM   27  C   LIG     1     -20.906 -15.855 -13.403  1.00  0.00    -0.015 A 
HETATM   28  C   LIG     1     -20.178 -16.879 -12.796  1.00  0.00     0.011 A 
HETATM   29  C   LIG     1     -18.788 -16.909 -12.911  1.00  0.00     0.001 A 
HETATM   30  C   LIG     1     -18.126 -15.916 -13.633  1.00  0.00     0.000 A 
HETATM   31  C   LIG     1     -18.854 -14.893 -14.240  1.00  0.00     0.001 A 
HETATM   32  C   LIG     1     -20.244 -14.862 -14.125  1.00  0.00     0.011 A 
ENDBRANCH  20  27
BRANCH  20  33
HETATM   33  C   LIG     1     -23.099 -17.126 -13.783  1.00  0.00    -0.015 A 
HETATM   34  C   LIG     1     -24.355 -17.506 -13.310  1.00  0.00     0.011 A 
HETATM   35  C   LIG     1     -24.946 -18.683 -13.768  1.00  0.00     0.001 A 
HETATM   36  C   LIG     1     -24.282 -19.482 -14.699  1.00  0.00     0.000 A 
HETATM   37  C   LIG     1     -23.025 -19.101 -15.172  1.00  0.00     0.001 A 
HETATM   38  C   LIG     1     -22.434 -17.924 -14.714  1.00  0.00     0.011 A 
ENDBRANCH  20  33
ENDBRANCH  19  20
ENDBRANCH  18  19
ENDBRANCH   1  18
BRANCH   4  39
HETATM   39  C   LIG     1     -20.937 -12.325  -7.518  1.00  0.00     0.107 A 
HETATM   40  N   LIG     1     -21.907 -11.801  -6.710  1.00  0.00    -0.353 N 
HETATM   41  C   LIG     1     -21.284 -11.258  -5.622  1.00  0.00     0.109 A 
HETATM   42  H   LIG     1     -22.904 -11.810  -6.883  1.00  0.00     0.166 HD
HETATM   43  C   LIG     1     -19.945 -11.487  -5.833  1.00  0.00     0.135 A 
HETATM   44  N   LIG     1     -19.735 -12.151  -7.016  1.00  0.00    -0.246 NA
ENDBRANCH   4  39
TORSDOF 13
ENDMDL
MODEL 3
REMARK VINA RESULT:     -10.0      3.376      7.012
REMARK  13 active torsions:
REMARK  status: ('A' for Active; 'I' for Inactive)
REMARK    1  A    between atoms: O_1  and  C_12 
REMARK    2  A    between atoms: O_1  and  C_17 
REMARK    3  A    between atoms: N_5  and  C_18 
REMARK       I    between atoms: N_5  and  C_32 
REMARK    4  A    between atoms: C_6  and  C_11 
REMARK    5  A    between atoms: C_6  and  C_12 
REMARK    6  A    between atoms: C_9  and  C_14 
REMARK    7  A    between atoms: C_11  and  C_13 
REMARK    8  A    between atoms: C_13  and  C_15 
REMARK    9  A    between atoms: C_15  and  C_16 
REMARK   10  A    between atoms: C_16  and  C_18 
REMARK   11  A    between atoms: C_17  and  C_21 
REMARK   12  A    between atoms: C_17  and  C_22 
REMARK   13  A    between atoms: C_17  and  C_23 
ROOT
HETATM    1  C   LIG     1     -22.793 -15.760 -13.630  1.00  0.00    -0.018 C 
HETATM    2  C   LIG     1     -23.798 -15.030 -14.535  1.00  0.00     0.024 C 
HETATM    3  C   LIG     1     -21.452 -15.372 -14.269  1.00  0.00     0.012 C 
HETATM    4  C   LIG     1     -23.120 -13.696 -14.901  1.00  0.00     0.056 C 
HETATM    5  C   LIG     1     -21.613 -13.904 -14.661  1.00  0.00     0.013 C 
ENDROOT
BRANCH   1   6
HETATM    6  C   LIG     1     -23.007 -17.275 -13.659  1.00  0.00     0.012 C 
BRANCH   6   7
HETATM    7  C   LIG     1     -22.252 -17.927 -14.818  1.00  0.00     0.001 C 
BRANCH   7   8
HETATM    8  C   LIG     1     -23.141 -18.927 -15.565  1.00  0.00     0.006 C 
BRANCH   8   9
HETATM    9  C   LIG     1     -23.540 -20.157 -14.715  1.00  0.00     0.004 C 
HETATM   10  C   LIG     1     -25.053 -20.409 -14.765  1.00  0.00     0.012 C 
BRANCH   9  11
HETATM   11  C   LIG     1     -22.704 -21.396 -15.134  1.00  0.00     0.084 C 
HETATM   12  C   LIG     1     -21.298 -21.401 -14.538  1.00  0.00     0.032 C 
BRANCH  11  13
HETATM   13  N   LIG     1     -23.368 -22.643 -14.834  1.00  0.00    -0.357 N 
HETATM   14  C   LIG     1     -24.100 -23.356 -15.769  1.00  0.00     0.213 C 
HETATM   15  O   LIG     1     -24.277 -23.036 -16.941  1.00  0.00    -0.274 OA
HETATM   16  C   LIG     1     -24.665 -24.630 -15.199  1.00  0.00     0.117 C 
HETATM   17  H   LIG     1     -23.231 -23.050 -13.914  1.00  0.00     0.162 HD
ENDBRANCH  11  13
ENDBRANCH   9  11
ENDBRANCH   8   9
ENDBRANCH   7   8
ENDBRANCH   6   7
ENDBRANCH   1   6
BRANCH   1  18
HETATM   18  C   LIG     1     -22.888 -15.265 -12.178  1.00  0.00     0.179 C 
BRANCH  18  19
HETATM   19  O   LIG     1     -22.530 -16.332 -11.326  1.00  0.00    -0.365 OA
BRANCH  19  20
HETATM   20  C   LIG     1     -21.811 -15.881 -10.182  1.00  0.00     0.142 C 
BRANCH  20  21
HETATM   21  C   LIG     1     -22.627 -16.281  -8.932  1.00  0.00    -0.015 A 
HETATM   22  C   LIG     1     -23.959 -16.675  -9.065  1.00  0.00     0.011 A 
HETATM   23  C   LIG     1     -24.695 -17.037  -7.937  1.00  0.00     0.001 A 
HETATM   24  C   LIG     1     -24.100 -17.004  -6.676  1.00  0.00     0.000 A 
HETATM   25  C   LIG     1     -22.768 -16.609  -6.543  1.00  0.00     0.001 A 
HETATM   26  C   LIG     1     -22.033 -16.248  -7.671  1.00  0.00     0.011 A 
ENDBRANCH  20  21
BRANCH  20  27
HETATM   27  C   LIG     1     -20.437 -16.578 -10.270  1.00  0.00    -0.015 A 
HETATM   28  C   LIG     1     -19.670 -16.756  -9.119  1.00  0.00     0.011 A 
HETATM   29  C   LIG     1     -18.427 -17.386  -9.199  1.00  0.00     0.001 A 
HETATM   30  C   LIG     1     -17.953 -17.839 -10.429  1.00  0.00     0.000 A 
HETATM   31  C   LIG     1     -18.721 -17.662 -11.581  1.00  0.00     0.001 A 
HETATM   32  C   LIG     1     -19.963 -17.032 -11.501  1.00  0.00     0.011 A 
ENDBRANCH  20  27
BRANCH  20  33
HETATM   33  C   LIG     1     -21.701 -14.350 -10.360  1.00  0.00    -0.015 A 
HETATM   34  C   LIG     1     -22.660 -13.511  -9.794  1.00  0.00     0.011 A 
HETATM   35  C   LIG     1     -22.560 -12.129  -9.954  1.00  0.00     0.001 A 
HETATM   36  C   LIG     1     -21.500 -11.586 -10.680  1.00  0.00     0.000 A 
HETATM   37  C   LIG     1     -20.540 -12.426 -11.246  1.00  0.00     0.001 A 
HETATM   38  C   LIG     1     -20.640 -13.807 -11.086  1.00  0.00     0.011 A 
ENDBRANCH  20  33
ENDBRANCH  19  20
ENDBRANCH  18  19
ENDBRANCH   1  18
BRANCH   4  39
HETATM   39  C   LIG     1     -23.454 -13.234 -16.306  1.00  0.00     0.107 A 
HETATM   40  N   LIG     1     -23.648 -11.912 -16.593  1.00  0.00    -0.353 N 
HETATM   41  C   LIG     1     -23.930 -11.819 -17.927  1.00  0.00     0.109 A 
HETATM   42  H   LIG     1     -23.592 -11.141 -15.940  1.00  0.00     0.166 HD
HETATM   43  C   LIG     1     -23.893 -13.115 -18.385  1.00  0.00     0.135 A 
HETATM   44  N   LIG     1     -23.597 -13.991 -17.371  1.00  0.00    -0.246 NA
ENDBRANCH   4  39
TORSDOF 13
ENDMDL
MODEL 4
REMARK VINA RESULT:      -9.9      0.614      3.597
REMARK  13 active torsions:
REMARK  status: ('A' for Active; 'I' for Inactive)
REMARK    1  A    between atoms: O_1  and  C_12 
REMARK    2  A    between atoms: O_1  and  C_17 
REMARK    3  A    between atoms: N_5  and  C_18 
REMARK       I    between atoms: N_5  and  C_32 
REMARK    4  A    between atoms: C_6  and  C_11 
REMARK    5  A    between atoms: C_6  and  C_12 
REMARK    6  A    between atoms: C_9  and  C_14 
REMARK    7  A    between atoms: C_11  and  C_13 
REMARK    8  A    between atoms: C_13  and  C_15 
REMARK    9  A    between atoms: C_15  and  C_16 
REMARK   10  A    between atoms: C_16  and  C_18 
REMARK   11  A    between atoms: C_17  and  C_21 
REMARK   12  A    between atoms: C_17  and  C_22 
REMARK   13  A    between atoms: C_17  and  C_23 
ROOT
HETATM    1  C   LIG     1     -22.008 -15.306  -9.627  1.00  0.00    -0.018 C 
HETATM    2  C   LIG     1     -20.919 -14.611  -8.795  1.00  0.00     0.024 C 
HETATM    3  C   LIG     1     -23.251 -14.473  -9.282  1.00  0.00     0.012 C 
HETATM    4  C   LIG     1     -21.265 -13.110  -8.848  1.00  0.00     0.056 C 
HETATM    5  C   LIG     1     -22.754 -13.028  -9.230  1.00  0.00     0.013 C 
ENDROOT
BRANCH   1   6
HETATM    6  C   LIG     1     -22.185 -16.769  -9.213  1.00  0.00     0.012 C 
BRANCH   6   7
HETATM    7  C   LIG     1     -21.254 -17.141  -8.058  1.00  0.00     0.001 C 
BRANCH   7   8
HETATM    8  C   LIG     1     -20.519 -18.456  -8.340  1.00  0.00     0.006 C 
BRANCH   8   9
HETATM    9  C   LIG     1     -19.536 -18.374  -9.532  1.00  0.00     0.004 C 
HETATM   10  C   LIG     1     -18.465 -17.299  -9.306  1.00  0.00     0.012 C 
BRANCH   9  11
HETATM   11  C   LIG     1     -18.939 -19.774  -9.835  1.00  0.00     0.084 C 
HETATM   12  C   LIG     1     -19.217 -20.796  -8.736  1.00  0.00     0.032 C 
BRANCH  11  13
HETATM   13  N   LIG     1     -19.368 -20.297 -11.111  1.00  0.00    -0.357 N 
HETATM   14  C   LIG     1     -19.088 -21.585 -11.535  1.00  0.00     0.213 C 
HETATM   15  O   LIG     1     -18.457 -22.430 -10.905  1.00  0.00    -0.274 OA
HETATM   16  C   LIG     1     -19.673 -21.879 -12.891  1.00  0.00     0.117 C 
HETATM   17  H   LIG     1     -19.965 -19.716 -11.692  1.00  0.00     0.162 HD
ENDBRANCH  11  13
ENDBRANCH   9  11
ENDBRANCH   8   9
ENDBRANCH   7   8
ENDBRANCH   6   7
ENDBRANCH   1   6
BRANCH   1  18
HETATM   18  C   LIG     1     -21.689 -15.242 -11.129  1.00  0.00     0.179 C 
BRANCH  18  19
HETATM   19  O   LIG     1     -22.700 -15.942 -11.823  1.00  0.00    -0.365 OA
BRANCH  19  20
HETATM   20  C   LIG     1     -22.454 -15.978 -13.226  1.00  0.00     0.142 C 
BRANCH  20  21
HETATM   21  C   LIG     1     -23.176 -17.222 -13.793  1.00  0.00    -0.015 A 
HETATM   22  C   LIG     1     -22.582 -17.970 -14.809  1.00  0.00     0.011 A 
HETATM   23  C   LIG     1     -23.233 -19.093 -15.320  1.00  0.00     0.001 A 
HETATM   24  C   LIG     1     -24.478 -19.466 -14.816  1.00  0.00     0.000 A 
HETATM   25  C   LIG     1     -25.073 -18.718 -13.799  1.00  0.00     0.001 A 
HETATM   26  C   LIG     1     -24.421 -17.596 -13.289  1.00  0.00     0.011 A 
ENDBRANCH  20  21
BRANCH  20  27
HETATM   27  C   LIG     1     -23.010 -14.643 -13.766  1.00  0.00    -0.015 A 
HETATM   28  C   LIG     1     -22.993 -13.504 -12.961  1.00  0.00     0.011 A 
HETATM   29  C   LIG     1     -23.495 -12.298 -13.450  1.00  0.00     0.001 A 
HETATM   30  C   LIG     1     -24.012 -12.230 -14.743  1.00  0.00     0.000 A 
HETATM   31  C   LIG     1     -24.028 -13.369 -15.548  1.00  0.00     0.001 A 
HETATM   32  C   LIG     1     -23.527 -14.576 -15.060  1.00  0.00     0.011 A 
ENDBRANCH  20  27
BRANCH  20  33
HETATM   33  C   LIG     1     -20.917 -16.067 -13.358  1.00  0.00    -0.015 A 
HETATM   34  C   LIG     1     -20.203 -15.008 -13.918  1.00  0.00     0.011 A 
HETATM   35  C   LIG     1     -18.816 -15.087 -14.037  1.00  0.00     0.001 A 
HETATM   36  C   LIG     1     -18.142 -16.226 -13.596  1.00  0.00     0.000 A 
HETATM   37  C   LIG     1     -18.857 -17.285 -13.036  1.00  0.00     0.001 A 
HETATM   38  C   LIG     1     -20.243 -17.206 -12.917  1.00  0.00     0.011 A 
ENDBRANCH  20  33
ENDBRANCH  19  20
ENDBRANCH  18  19
ENDBRANCH   1  18
BRANCH   4  39
HETATM   39  C   LIG     1     -20.926 -12.385  -7.561  1.00  0.00     0.107 A 
HETATM   40  N   LIG     1     -21.901 -11.852  -6.766  1.00  0.00    -0.353 N 
HETATM   41  C   LIG     1     -21.285 -11.271  -5.694  1.00  0.00     0.109 A 
HETATM   42  H   LIG     1     -22.898 -11.881  -6.937  1.00  0.00     0.166 HD
HETATM   43  C   LIG     1     -19.944 -11.486  -5.901  1.00  0.00     0.135 A 
HETATM   44  N   LIG     1     -19.726 -12.179  -7.065  1.00  0.00    -0.246 NA
ENDBRANCH   4  39
TORSDOF 13
ENDMDL
MODEL 5
REMARK VINA RESULT:      -9.9      3.419      7.255
REMARK  13 active torsions:
REMARK  status: ('A' for Active; 'I' for Inactive)
REMARK    1  A    between atoms: O_1  and  C_12 
REMARK    2  A    between atoms: O_1  and  C_17 
REMARK    3  A    between atoms: N_5  and  C_18 
REMARK       I    between atoms: N_5  and  C_32 
REMARK    4  A    between atoms: C_6  and  C_11 
REMARK    5  A    between atoms: C_6  and  C_12 
REMARK    6  A    between atoms: C_9  and  C_14 
REMARK    7  A    between atoms: C_11  and  C_13 
REMARK    8  A    between atoms: C_13  and  C_15 
REMARK    9  A    between atoms: C_15  and  C_16 
REMARK   10  A    between atoms: C_16  and  C_18 
REMARK   11  A    between atoms: C_17  and  C_21 
REMARK   12  A    between atoms: C_17  and  C_22 
REMARK   13  A    between atoms: C_17  and  C_23 
ROOT
HETATM    1  C   LIG     1     -22.730 -15.907 -13.644  1.00  0.00    -0.018 C 
HETATM    2  C   LIG     1     -23.755 -15.288 -14.607  1.00  0.00     0.024 C 
HETATM    3  C   LIG     1     -21.400 -15.448 -14.257  1.00  0.00     0.012 C 
HETATM    4  C   LIG     1     -23.161 -13.923 -15.007  1.00  0.00     0.056 C 
HETATM    5  C   LIG     1     -21.652 -14.012 -14.714  1.00  0.00     0.013 C 
ENDROOT
BRANCH   1   6
HETATM    6  C   LIG     1     -22.835 -17.434 -13.616  1.00  0.00     0.012 C 
BRANCH   6   7
HETATM    7  C   LIG     1     -22.201 -18.062 -14.858  1.00  0.00     0.001 C 
BRANCH   7   8
HETATM    8  C   LIG     1     -23.185 -18.997 -15.569  1.00  0.00     0.006 C 
BRANCH   8   9
HETATM    9  C   LIG     1     -23.600 -20.223 -14.720  1.00  0.00     0.004 C 
HETATM   10  C   LIG     1     -25.113 -20.469 -14.790  1.00  0.00     0.012 C 
BRANCH   9  11
HETATM   11  C   LIG     1     -22.762 -21.466 -15.123  1.00  0.00     0.084 C 
HETATM   12  C   LIG     1     -21.373 -21.484 -14.489  1.00  0.00     0.032 C 
BRANCH  11  13
HETATM   13  N   LIG     1     -23.443 -22.709 -14.847  1.00  0.00    -0.357 N 
HETATM   14  C   LIG     1     -24.153 -23.414 -15.804  1.00  0.00     0.213 C 
HETATM   15  O   LIG     1     -24.294 -23.089 -16.980  1.00  0.00    -0.274 OA
HETATM   16  C   LIG     1     -24.743 -24.685 -15.256  1.00  0.00     0.117 C 
HETATM   17  H   LIG     1     -23.335 -23.120 -13.924  1.00  0.00     0.162 HD
ENDBRANCH  11  13
ENDBRANCH   9  11
ENDBRANCH   8   9
ENDBRANCH   7   8
ENDBRANCH   6   7
ENDBRANCH   1   6
BRANCH   1  18
HETATM   18  C   LIG     1     -22.907 -15.364 -12.217  1.00  0.00     0.179 C 
BRANCH  18  19
HETATM   19  O   LIG     1     -22.527 -16.378 -11.310  1.00  0.00    -0.365 OA
BRANCH  19  20
HETATM   20  C   LIG     1     -21.805 -15.855 -10.200  1.00  0.00     0.142 C 
BRANCH  20  21
HETATM   21  C   LIG     1     -21.693 -14.326 -10.395  1.00  0.00    -0.015 A 
HETATM   22  C   LIG     1     -20.639 -13.793 -11.137  1.00  0.00     0.011 A 
HETATM   23  C   LIG     1     -20.538 -12.413 -11.314  1.00  0.00     0.001 A 
HETATM   24  C   LIG     1     -21.492 -11.567 -10.750  1.00  0.00     0.000 A 
HETATM   25  C   LIG     1     -22.546 -12.100 -10.007  1.00  0.00     0.001 A 
HETATM   26  C   LIG     1     -22.646 -13.479  -9.831  1.00  0.00     0.011 A 
ENDBRANCH  20  21
BRANCH  20  27
HETATM   27  C   LIG     1     -22.628 -16.260  -8.958  1.00  0.00    -0.015 A 
HETATM   28  C   LIG     1     -23.941 -16.708  -9.107  1.00  0.00     0.011 A 
HETATM   29  C   LIG     1     -24.684 -17.073  -7.985  1.00  0.00     0.001 A 
HETATM   30  C   LIG     1     -24.116 -16.991  -6.714  1.00  0.00     0.000 A 
HETATM   31  C   LIG     1     -22.803 -16.544  -6.565  1.00  0.00     0.001 A 
HETATM   32  C   LIG     1     -22.059 -16.178  -7.687  1.00  0.00     0.011 A 
ENDBRANCH  20  27
BRANCH  20  33
HETATM   33  C   LIG     1     -20.434 -16.566 -10.247  1.00  0.00    -0.015 A 
HETATM   34  C   LIG     1     -19.948 -17.067 -11.454  1.00  0.00     0.011 A 
HETATM   35  C   LIG     1     -18.711 -17.708 -11.496  1.00  0.00     0.001 A 
HETATM   36  C   LIG     1     -17.957 -17.849 -10.331  1.00  0.00     0.000 A 
HETATM   37  C   LIG     1     -18.443 -17.347  -9.123  1.00  0.00     0.001 A 
HETATM   38  C   LIG     1     -19.680 -16.706  -9.080  1.00  0.00     0.011 A 
ENDBRANCH  20  33
ENDBRANCH  19  20
ENDBRANCH  18  19
ENDBRANCH   1  18
BRANCH   4  39
HETATM   39  C   LIG     1     -23.482 -13.542 -16.439  1.00  0.00     0.107 A 
HETATM   40  N   LIG     1     -23.395 -14.452 -17.455  1.00  0.00    -0.353 N 
HETATM   41  C   LIG     1     -23.742 -13.812 -18.611  1.00  0.00     0.109 A 
HETATM   42  H   LIG     1     -23.124 -15.424 -17.370  1.00  0.00     0.166 HD
HETATM   43  C   LIG     1     -24.025 -12.523 -18.226  1.00  0.00     0.135 A 
HETATM   44  N   LIG     1     -23.860 -12.360 -16.874  1.00  0.00    -0.246 NA
ENDBRANCH   4  39
TORSDOF 13
ENDMDL
MODEL 6
REMARK VINA RESULT:      -9.9      3.406      7.149
REMARK  13 active torsions:
REMARK  status: ('A' for Active; 'I' for Inactive)
REMARK    1  A    between atoms: O_1  and  C_12 
REMARK    2  A    between atoms: O_1  and  C_17 
REMARK    3  A    between atoms: N_5  and  C_18 
REMARK       I    between atoms: N_5  and  C_32 
REMARK    4  A    between atoms: C_6  and  C_11 
REMARK    5  A    between atoms: C_6  and  C_12 
REMARK    6  A    between atoms: C_9  and  C_14 
REMARK    7  A    between atoms: C_11  and  C_13 
REMARK    8  A    between atoms: C_13  and  C_15 
REMARK    9  A    between atoms: C_15  and  C_16 
REMARK   10  A    between atoms: C_16  and  C_18 
REMARK   11  A    between atoms: C_17  and  C_21 
REMARK   12  A    between atoms: C_17  and  C_22 
REMARK   13  A    between atoms: C_17  and  C_23 
ROOT
HETATM    1  C   LIG     1     -22.705 -15.864 -13.595  1.00  0.00    -0.018 C 
HETATM    2  C   LIG     1     -23.738 -15.253 -14.555  1.00  0.00     0.024 C 
HETATM    3  C   LIG     1     -21.380 -15.412 -14.225  1.00  0.00     0.012 C 
HETATM    4  C   LIG     1     -23.147 -13.894 -14.974  1.00  0.00     0.056 C 
HETATM    5  C   LIG     1     -21.636 -13.980 -14.694  1.00  0.00     0.013 C 
ENDROOT
BRANCH   1   6
HETATM    6  C   LIG     1     -22.810 -17.390 -13.550  1.00  0.00     0.012 C 
BRANCH   6   7
HETATM    7  C   LIG     1     -22.165 -18.033 -14.780  1.00  0.00     0.001 C 
BRANCH   7   8
HETATM    8  C   LIG     1     -23.155 -18.945 -15.512  1.00  0.00     0.006 C 
BRANCH   8   9
HETATM    9  C   LIG     1     -23.584 -20.183 -14.689  1.00  0.00     0.004 C 
HETATM   10  C   LIG     1     -25.098 -20.417 -14.770  1.00  0.00     0.012 C 
BRANCH   9  11
HETATM   11  C   LIG     1     -22.753 -21.424 -15.111  1.00  0.00     0.084 C 
HETATM   12  C   LIG     1     -21.362 -21.459 -14.481  1.00  0.00     0.032 C 
BRANCH  11  13
HETATM   13  N   LIG     1     -23.440 -22.668 -14.850  1.00  0.00    -0.357 N 
HETATM   14  C   LIG     1     -24.156 -23.355 -15.816  1.00  0.00     0.213 C 
HETATM   15  O   LIG     1     -24.300 -23.012 -16.987  1.00  0.00    -0.274 OA
HETATM   16  C   LIG     1     -24.751 -24.631 -15.285  1.00  0.00     0.117 C 
HETATM   17  H   LIG     1     -23.332 -23.093 -13.934  1.00  0.00     0.162 HD
ENDBRANCH  11  13
ENDBRANCH   9  11
ENDBRANCH   8   9
ENDBRANCH   7   8
ENDBRANCH   6   7
ENDBRANCH   1   6
BRANCH   1  18
HETATM   18  C   LIG     1     -22.868 -15.306 -12.172  1.00  0.00     0.179 C 
BRANCH  18  19
HETATM   19  O   LIG     1     -22.582 -16.344 -11.258  1.00  0.00    -0.365 OA
BRANCH  19  20
HETATM   20  C   LIG     1     -21.812 -15.881 -10.152  1.00  0.00     0.142 C 
BRANCH  20  21
HETATM   21  C   LIG     1     -20.439 -16.587 -10.212  1.00  0.00    -0.015 A 
HETATM   22  C   LIG     1     -19.970 -17.097 -11.423  1.00  0.00     0.011 A 
HETATM   23  C   LIG     1     -18.730 -17.735 -11.477  1.00  0.00     0.001 A 
HETATM   24  C   LIG     1     -17.961 -17.862 -10.321  1.00  0.00     0.000 A 
HETATM   25  C   LIG     1     -18.431 -17.353  -9.110  1.00  0.00     0.001 A 
HETATM   26  C   LIG     1     -19.670 -16.716  -9.056  1.00  0.00     0.011 A 
ENDBRANCH  20  21
BRANCH  20  27
HETATM   27  C   LIG     1     -21.726 -14.350 -10.336  1.00  0.00    -0.015 A 
HETATM   28  C   LIG     1     -22.699 -13.524  -9.772  1.00  0.00     0.011 A 
HETATM   29  C   LIG     1     -22.621 -12.141  -9.938  1.00  0.00     0.001 A 
HETATM   30  C   LIG     1     -21.570 -11.584 -10.666  1.00  0.00     0.000 A 
HETATM   31  C   LIG     1     -20.597 -12.410 -11.229  1.00  0.00     0.001 A 
HETATM   32  C   LIG     1     -20.675 -13.793 -11.064  1.00  0.00     0.011 A 
ENDBRANCH  20  27
BRANCH  20  33
HETATM   33  C   LIG     1     -22.633 -16.273  -8.903  1.00  0.00    -0.015 A 
HETATM   34  C   LIG     1     -22.030 -16.279  -7.646  1.00  0.00     0.011 A 
HETATM   35  C   LIG     1     -22.771 -16.632  -6.519  1.00  0.00     0.001 A 
HETATM   36  C   LIG     1     -24.116 -16.980  -6.648  1.00  0.00     0.000 A 
HETATM   37  C   LIG     1     -24.719 -16.974  -7.906  1.00  0.00     0.001 A 
HETATM   38  C   LIG     1     -23.978 -16.621  -9.033  1.00  0.00     0.011 A 
ENDBRANCH  20  33
ENDBRANCH  19  20
ENDBRANCH  18  19
ENDBRANCH   1  18
BRANCH   4  39
HETATM   39  C   LIG     1     -23.481 -13.526 -16.407  1.00  0.00     0.107 A 
HETATM   40  N   LIG     1     -23.336 -14.427 -17.425  1.00  0.00    -0.353 N 
HETATM   41  C   LIG     1     -23.712 -13.803 -18.581  1.00  0.00     0.109 A 
HETATM   42  H   LIG     1     -23.010 -15.381 -17.341  1.00  0.00     0.166 HD
HETATM   43  C   LIG     1     -24.071 -12.534 -18.194  1.00  0.00     0.135 A 
HETATM   44  N   LIG     1     -23.924 -12.367 -16.840  1.00  0.00    -0.246 NA
ENDBRANCH   4  39
TORSDOF 13
ENDMDL
MODEL 7
REMARK VINA RESULT:      -9.7      3.114      8.413
REMARK  13 active torsions:
REMARK  status: ('A' for Active; 'I' for Inactive)
REMARK    1  A    between atoms: O_1  and  C_12 
REMARK    2  A    between atoms: O_1  and  C_17 
REMARK    3  A    between atoms: N_5  and  C_18 
REMARK       I    between atoms: N_5  and  C_32 
REMARK    4  A    between atoms: C_6  and  C_11 
REMARK    5  A    between atoms: C_6  and  C_12 
REMARK    6  A    between atoms: C_9  and  C_14 
REMARK    7  A    between atoms: C_11  and  C_13 
REMARK    8  A    between atoms: C_13  and  C_15 
REMARK    9  A    between atoms: C_15  and  C_16 
REMARK   10  A    between atoms: C_16  and  C_18 
REMARK   11  A    between atoms: C_17  and  C_21 
REMARK   12  A    between atoms: C_17  and  C_22 
REMARK   13  A    between atoms: C_17  and  C_23 
ROOT
HETATM    1  C   LIG     1     -23.698 -17.304 -14.419  1.00  0.00    -0.018 C 
HETATM    2  C   LIG     1     -23.207 -18.531 -15.203  1.00  0.00     0.024 C 
HETATM    3  C   LIG     1     -25.120 -17.726 -14.026  1.00  0.00     0.012 C 
HETATM    4  C   LIG     1     -23.813 -19.746 -14.474  1.00  0.00     0.056 C 
HETATM    5  C   LIG     1     -25.005 -19.206 -13.663  1.00  0.00     0.013 C 
ENDROOT
BRANCH   1   6
HETATM    6  C   LIG     1     -23.709 -16.046 -15.291  1.00  0.00     0.012 C 
BRANCH   6   7
HETATM    7  C   LIG     1     -25.125 -15.698 -15.754  1.00  0.00     0.001 C 
BRANCH   7   8
HETATM    8  C   LIG     1     -25.155 -14.347 -16.477  1.00  0.00     0.006 C 
BRANCH   8   9
HETATM    9  C   LIG     1     -23.787 -13.929 -17.067  1.00  0.00     0.004 C 
HETATM   10  C   LIG     1     -23.754 -14.099 -18.591  1.00  0.00     0.012 C 
BRANCH   9  11
HETATM   11  C   LIG     1     -23.418 -12.493 -16.607  1.00  0.00     0.084 C 
HETATM   12  C   LIG     1     -23.999 -11.406 -17.509  1.00  0.00     0.032 C 
BRANCH  11  13
HETATM   13  N   LIG     1     -23.785 -12.237 -15.234  1.00  0.00    -0.357 N 
HETATM   14  C   LIG     1     -23.010 -12.633 -14.156  1.00  0.00     0.213 C 
HETATM   15  O   LIG     1     -21.942 -13.235 -14.220  1.00  0.00    -0.274 OA
HETATM   16  C   LIG     1     -23.611 -12.220 -12.840  1.00  0.00     0.117 C 
HETATM   17  H   LIG     1     -24.613 -11.678 -15.055  1.00  0.00     0.162 HD
ENDBRANCH  11  13
ENDBRANCH   9  11
ENDBRANCH   8   9
ENDBRANCH   7   8
ENDBRANCH   6   7
ENDBRANCH   1   6
BRANCH   1  18
HETATM   18  C   LIG     1     -22.825 -17.049 -13.179  1.00  0.00     0.179 C 
BRANCH  18  19
HETATM   19  O   LIG     1     -21.558 -16.606 -13.618  1.00  0.00    -0.365 OA
BRANCH  19  20
HETATM   20  C   LIG     1     -20.584 -16.671 -12.581  1.00  0.00     0.142 C 
BRANCH  20  21
HETATM   21  C   LIG     1     -21.272 -16.234 -11.268  1.00  0.00    -0.015 A 
HETATM   22  C   LIG     1     -20.887 -16.806 -10.055  1.00  0.00     0.011 A 
HETATM   23  C   LIG     1     -21.508 -16.411  -8.870  1.00  0.00     0.001 A 
HETATM   24  C   LIG     1     -22.513 -15.445  -8.898  1.00  0.00     0.000 A 
HETATM   25  C   LIG     1     -22.898 -14.873 -10.111  1.00  0.00     0.001 A 
HETATM   26  C   LIG     1     -22.277 -15.268 -11.295  1.00  0.00     0.011 A 
ENDBRANCH  20  21
BRANCH  20  27
HETATM   27  C   LIG     1     -20.108 -18.140 -12.568  1.00  0.00    -0.015 A 
HETATM   28  C   LIG     1     -19.499 -18.667 -11.429  1.00  0.00     0.011 A 
HETATM   29  C   LIG     1     -19.069 -19.994 -11.419  1.00  0.00     0.001 A 
HETATM   30  C   LIG     1     -19.251 -20.795 -12.545  1.00  0.00     0.000 A 
HETATM   31  C   LIG     1     -19.861 -20.269 -13.684  1.00  0.00     0.001 A 
HETATM   32  C   LIG     1     -20.290 -18.941 -13.696  1.00  0.00     0.011 A 
ENDBRANCH  20  27
BRANCH  20  33
HETATM   33  C   LIG     1     -19.466 -15.701 -13.022  1.00  0.00    -0.015 A 
HETATM   34  C   LIG     1     -19.450 -14.390 -12.544  1.00  0.00     0.011 A 
HETATM   35  C   LIG     1     -18.441 -13.515 -12.942  1.00  0.00     0.001 A 
HETATM   36  C   LIG     1     -17.446 -13.948 -13.819  1.00  0.00     0.000 A 
HETATM   37  C   LIG     1     -17.462 -15.259 -14.297  1.00  0.00     0.001 A 
HETATM   38  C   LIG     1     -18.471 -16.135 -13.899  1.00  0.00     0.011 A 
ENDBRANCH  20  33
ENDBRANCH  19  20
ENDBRANCH  18  19
ENDBRANCH   1  18
BRANCH   4  39
HETATM   39  C   LIG     1     -24.180 -20.873 -15.419  1.00  0.00     0.107 A 
HETATM   40  N   LIG     1     -24.932 -20.648 -16.538  1.00  0.00    -0.353 N 
HETATM   41  C   LIG     1     -25.090 -21.847 -17.174  1.00  0.00     0.109 A 
HETATM   42  H   LIG     1     -25.306 -19.758 -16.841  1.00  0.00     0.166 HD
HETATM   43  C   LIG     1     -24.412 -22.751 -16.392  1.00  0.00     0.135 A 
HETATM   44  N   LIG     1     -23.849 -22.140 -15.300  1.00  0.00    -0.246 NA
ENDBRANCH   4  39
TORSDOF 13
ENDMDL
MODEL 8
REMARK VINA RESULT:      -9.6      1.316      3.797
REMARK  13 active torsions:
REMARK  status: ('A' for Active; 'I' for Inactive)
REMARK    1  A    between atoms: O_1  and  C_12 
REMARK    2  A    between atoms: O_1  and  C_17 
REMARK    3  A    between atoms: N_5  and  C_18 
REMARK       I    between atoms: N_5  and  C_32 
REMARK    4  A    between atoms: C_6  and  C_11 
REMARK    5  A    between atoms: C_6  and  C_12 
REMARK    6  A    between atoms: C_9  and  C_14 
REMARK    7  A    between atoms: C_11  and  C_13 
REMARK    8  A    between atoms: C_13  and  C_15 
REMARK    9  A    between atoms: C_15  and  C_16 
REMARK   10  A    between atoms: C_16  and  C_18 
REMARK   11  A    between atoms: C_17  and  C_21 
REMARK   12  A    between atoms: C_17  and  C_22 
REMARK   13  A    between atoms: C_17  and  C_23 
ROOT
HETATM    1  C   LIG     1     -21.899 -16.141 -10.950  1.00  0.00    -0.018 C 
HETATM    2  C   LIG     1     -21.357 -14.790 -10.458  1.00  0.00     0.024 C 
HETATM    3  C   LIG     1     -22.545 -16.706  -9.677  1.00  0.00     0.012 C 
HETATM    4  C   LIG     1     -22.407 -14.272  -9.455  1.00  0.00     0.056 C 
HETATM    5  C   LIG     1     -23.214 -15.505  -9.009  1.00  0.00     0.013 C 
ENDROOT
BRANCH   1   6
HETATM    6  C   LIG     1     -20.775 -17.048 -11.455  1.00  0.00     0.012 C 
BRANCH   6   7
HETATM    7  C   LIG     1     -19.397 -16.470 -11.125  1.00  0.00     0.001 C 
BRANCH   7   8
HETATM    8  C   LIG     1     -18.366 -17.584 -10.915  1.00  0.00     0.006 C 
BRANCH   8   9
HETATM    9  C   LIG     1     -18.325 -18.126  -9.466  1.00  0.00     0.004 C 
HETATM   10  C   LIG     1     -19.161 -17.257  -8.516  1.00  0.00     0.012 C 
BRANCH   9  11
HETATM   11  C   LIG     1     -18.733 -19.623  -9.438  1.00  0.00     0.084 C 
HETATM   12  C   LIG     1     -19.727 -19.954  -8.327  1.00  0.00     0.032 C 
BRANCH  11  13
HETATM   13  N   LIG     1     -19.244 -20.084 -10.708  1.00  0.00    -0.357 N 
HETATM   14  C   LIG     1     -19.045 -21.369 -11.183  1.00  0.00     0.213 C 
HETATM   15  O   LIG     1     -18.428 -22.262 -10.610  1.00  0.00    -0.274 OA
HETATM   16  C   LIG     1     -19.705 -21.591 -12.518  1.00  0.00     0.117 C 
HETATM   17  H   LIG     1     -19.838 -19.456 -11.241  1.00  0.00     0.162 HD
ENDBRANCH  11  13
ENDBRANCH   9  11
ENDBRANCH   8   9
ENDBRANCH   7   8
ENDBRANCH   6   7
ENDBRANCH   1   6
BRANCH   1  18
HETATM   18  C   LIG     1     -22.935 -15.951 -12.069  1.00  0.00     0.179 C 
BRANCH  18  19
HETATM   19  O   LIG     1     -22.552 -14.828 -12.836  1.00  0.00    -0.365 OA
BRANCH  19  20
HETATM   20  C   LIG     1     -22.161 -15.195 -14.156  1.00  0.00     0.142 C 
BRANCH  20  21
HETATM   21  C   LIG     1     -22.660 -16.636 -14.406  1.00  0.00    -0.015 A 
HETATM   22  C   LIG     1     -24.024 -16.885 -14.559  1.00  0.00     0.011 A 
HETATM   23  C   LIG     1     -24.474 -18.186 -14.785  1.00  0.00     0.001 A 
HETATM   24  C   LIG     1     -23.561 -19.237 -14.858  1.00  0.00     0.000 A 
HETATM   25  C   LIG     1     -22.196 -18.988 -14.704  1.00  0.00     0.001 A 
HETATM   26  C   LIG     1     -21.747 -17.688 -14.478  1.00  0.00     0.011 A 
ENDBRANCH  20  21
BRANCH  20  27
HETATM   27  C   LIG     1     -22.821 -14.146 -15.077  1.00  0.00    -0.015 A 
HETATM   28  C   LIG     1     -22.495 -14.104 -16.432  1.00  0.00     0.011 A 
HETATM   29  C   LIG     1     -23.091 -13.156 -17.264  1.00  0.00     0.001 A 
HETATM   30  C   LIG     1     -24.014 -12.251 -16.740  1.00  0.00     0.000 A 
HETATM   31  C   LIG     1     -24.341 -12.294 -15.385  1.00  0.00     0.001 A 
HETATM   32  C   LIG     1     -23.745 -13.241 -14.553  1.00  0.00     0.011 A 
ENDBRANCH  20  27
BRANCH  20  33
HETATM   33  C   LIG     1     -20.620 -15.086 -14.159  1.00  0.00    -0.015 A 
HETATM   34  C   LIG     1     -20.002 -13.915 -13.723  1.00  0.00     0.011 A 
HETATM   35  C   LIG     1     -18.611 -13.817 -13.725  1.00  0.00     0.001 A 
HETATM   36  C   LIG     1     -17.837 -14.891 -14.164  1.00  0.00     0.000 A 
HETATM   37  C   LIG     1     -18.455 -16.063 -14.600  1.00  0.00     0.001 A 
HETATM   38  C   LIG     1     -19.846 -16.161 -14.598  1.00  0.00     0.011 A 
ENDBRANCH  20  33
ENDBRANCH  19  20
ENDBRANCH  18  19
ENDBRANCH   1  18
BRANCH   4  39
HETATM   39  C   LIG     1     -21.790 -13.500  -8.306  1.00  0.00     0.107 A 
HETATM   40  N   LIG     1     -21.442 -12.185  -8.438  1.00  0.00    -0.353 N 
HETATM   41  C   LIG     1     -20.919 -11.777  -7.244  1.00  0.00     0.109 A 
HETATM   42  H   LIG     1     -21.551 -11.614  -9.267  1.00  0.00     0.166 HD
HETATM   43  C   LIG     1     -20.978 -12.888  -6.437  1.00  0.00     0.135 A 
HETATM   44  N   LIG     1     -21.520 -13.958  -7.104  1.00  0.00    -0.246 NA
ENDBRANCH   4  39
TORSDOF 13
ENDMDL
MODEL 9
REMARK VINA RESULT:      -9.6      2.310      5.205
REMARK  13 active torsions:
REMARK  status: ('A' for Active; 'I' for Inactive)
REMARK    1  A    between atoms: O_1  and  C_12 
REMARK    2  A    between atoms: O_1  and  C_17 
REMARK    3  A    between atoms: N_5  and  C_18 
REMARK       I    between atoms: N_5  and  C_32 
REMARK    4  A    between atoms: C_6  and  C_11 
REMARK    5  A    between atoms: C_6  and  C_12 
REMARK    6  A    between atoms: C_9  and  C_14 
REMARK    7  A    between atoms: C_11  and  C_13 
REMARK    8  A    between atoms: C_13  and  C_15 
REMARK    9  A    between atoms: C_15  and  C_16 
REMARK   10  A    between atoms: C_16  and  C_18 
REMARK   11  A    between atoms: C_17  and  C_21 
REMARK   12  A    between atoms: C_17  and  C_22 
REMARK   13  A    between atoms: C_17  and  C_23 
ROOT
HETATM    1  C   LIG     1     -22.417 -15.239 -10.920  1.00  0.00    -0.018 C 
HETATM    2  C   LIG     1     -23.311 -15.692  -9.755  1.00  0.00     0.024 C 
HETATM    3  C   LIG     1     -21.032 -15.718 -10.463  1.00  0.00     0.012 C 
HETATM    4  C   LIG     1     -22.729 -17.045  -9.301  1.00  0.00     0.056 C 
HETATM    5  C   LIG     1     -21.280 -17.082  -9.821  1.00  0.00     0.013 C 
ENDROOT
BRANCH   1   6
HETATM    6  C   LIG     1     -22.452 -13.719 -11.098  1.00  0.00     0.012 C 
BRANCH   6   7
HETATM    7  C   LIG     1     -22.777 -13.008  -9.783  1.00  0.00     0.001 C 
BRANCH   7   8
HETATM    8  C   LIG     1     -21.498 -12.625  -9.030  1.00  0.00     0.006 C 
BRANCH   8   9
HETATM    9  C   LIG     1     -21.542 -12.962  -7.521  1.00  0.00     0.004 C 
HETATM   10  C   LIG     1     -20.789 -14.262  -7.212  1.00  0.00     0.012 C 
BRANCH   9  11
HETATM   11  C   LIG     1     -21.040 -11.755  -6.684  1.00  0.00     0.084 C 
HETATM   12  C   LIG     1     -21.780 -11.595  -5.358  1.00  0.00     0.032 C 
BRANCH  11  13
HETATM   13  N   LIG     1     -19.616 -11.795  -6.450  1.00  0.00    -0.357 N 
HETATM   14  C   LIG     1     -18.927 -10.789  -5.792  1.00  0.00     0.213 C 
HETATM   15  O   LIG     1     -19.417  -9.760  -5.335  1.00  0.00    -0.274 OA
HETATM   16  C   LIG     1     -17.459 -11.095  -5.662  1.00  0.00     0.117 C 
HETATM   17  H   LIG     1     -19.110 -12.634  -6.716  1.00  0.00     0.162 HD
ENDBRANCH  11  13
ENDBRANCH   9  11
ENDBRANCH   8   9
ENDBRANCH   7   8
ENDBRANCH   6   7
ENDBRANCH   1   6
BRANCH   1  18
HETATM   18  C   LIG     1     -22.837 -15.910 -12.238  1.00  0.00     0.179 C 
BRANCH  18  19
HETATM   19  O   LIG     1     -23.006 -14.900 -13.211  1.00  0.00    -0.365 OA
BRANCH  19  20
HETATM   20  C   LIG     1     -22.426 -15.262 -14.460  1.00  0.00     0.142 C 
BRANCH  20  21
HETATM   21  C   LIG     1     -20.894 -15.108 -14.323  1.00  0.00    -0.015 A 
HETATM   22  C   LIG     1     -20.073 -16.234 -14.376  1.00  0.00     0.011 A 
HETATM   23  C   LIG     1     -18.690 -16.095 -14.253  1.00  0.00     0.001 A 
HETATM   24  C   LIG     1     -18.130 -14.830 -14.078  1.00  0.00     0.000 A 
HETATM   25  C   LIG     1     -18.951 -13.703 -14.025  1.00  0.00     0.001 A 
HETATM   26  C   LIG     1     -20.333 -13.843 -14.148  1.00  0.00     0.011 A 
ENDBRANCH  20  21
BRANCH  20  27
HETATM   27  C   LIG     1     -22.879 -16.717 -14.707  1.00  0.00    -0.015 A 
HETATM   28  C   LIG     1     -24.205 -16.986 -15.047  1.00  0.00     0.011 A 
HETATM   29  C   LIG     1     -24.615 -18.301 -15.270  1.00  0.00     0.001 A 
HETATM   30  C   LIG     1     -23.699 -19.346 -15.155  1.00  0.00     0.000 A 
HETATM   31  C   LIG     1     -22.373 -19.076 -14.816  1.00  0.00     0.001 A 
HETATM   32  C   LIG     1     -21.963 -17.762 -14.592  1.00  0.00     0.011 A 
ENDBRANCH  20  27
BRANCH  20  33
HETATM   33  C   LIG     1     -23.037 -14.279 -15.483  1.00  0.00    -0.015 A 
HETATM   34  C   LIG     1     -23.889 -13.262 -15.052  1.00  0.00     0.011 A 
HETATM   35  C   LIG     1     -24.440 -12.375 -15.975  1.00  0.00     0.001 A 
HETATM   36  C   LIG     1     -24.141 -12.504 -17.332  1.00  0.00     0.000 A 
HETATM   37  C   LIG     1     -23.288 -13.521 -17.763  1.00  0.00     0.001 A 
HETATM   38  C   LIG     1     -22.737 -14.408 -16.840  1.00  0.00     0.011 A 
ENDBRANCH  20  33
ENDBRANCH  19  20
ENDBRANCH  18  19
ENDBRANCH   1  18
BRANCH   4  39
HETATM   39  C   LIG     1     -22.844 -17.260  -7.805  1.00  0.00     0.107 A 
HETATM   40  N   LIG     1     -23.889 -16.745  -7.090  1.00  0.00    -0.353 N 
HETATM   41  C   LIG     1     -23.711 -17.106  -5.785  1.00  0.00     0.109 A 
HETATM   42  H   LIG     1     -24.655 -16.196  -7.457  1.00  0.00     0.166 HD
HETATM   43  C   LIG     1     -22.545 -17.835  -5.778  1.00  0.00     0.135 A 
HETATM   44  N   LIG     1     -22.009 -17.926  -7.038  1.00  0.00    -0.246 NA
ENDBRANCH   4  39
TORSDOF 13
ENDMDL
