MODEL 1
REMARK VINA RESULT:      -7.5      0.000      0.000
REMARK  3 active torsions:
REMARK  status: ('A' for Active; 'I' for Inactive)
REMARK    1  A    between atoms: C_5  and  C_15 
REMARK    2  A    between atoms: C_15  and  C_16 
REMARK    3  A    between atoms: C_16  and  C_17 
ROOT
HETATM    1  O   LIG     1     -20.071 -16.042  -9.248  1.00  0.00    -0.287 OA
HETATM    2  O   LIG     1     -20.165 -16.185 -11.484  1.00  0.00    -0.238 OA
HETATM    3  N   LIG     1     -21.529 -14.604 -10.453  1.00  0.00    -0.300 N 
HETATM    4  C   LIG     1     -22.073 -14.020  -9.191  1.00  0.00     0.071 C 
HETATM    5  C   LIG     1     -20.946 -14.080  -8.127  1.00  0.00     0.047 C 
HETATM    6  C   LIG     1     -20.567 -15.549  -7.981  1.00  0.00     0.128 C 
HETATM    7  C   LIG     1     -23.301 -14.852  -8.728  1.00  0.00     0.021 C 
HETATM    8  C   LIG     1     -22.483 -12.538  -9.409  1.00  0.00     0.021 C 
HETATM    9  C   LIG     1     -21.724 -16.437  -7.514  1.00  0.00     0.030 C 
HETATM   10  C   LIG     1     -22.962 -16.307  -8.397  1.00  0.00     0.004 C 
HETATM   11  C   LIG     1     -23.304 -12.303 -10.671  1.00  0.00     0.004 C 
HETATM   12  C   LIG     1     -22.226 -14.306 -11.709  1.00  0.00     0.106 C 
HETATM   13  C   LIG     1     -22.549 -12.831 -11.879  1.00  0.00     0.024 C 
HETATM   14  C   LIG     1     -20.572 -15.636 -10.459  1.00  0.00     0.365 C 
ENDROOT
BRANCH   5  15
HETATM   15  C   LIG     1     -21.271 -13.435  -6.776  1.00  0.00     0.004 C 
BRANCH  15  16
HETATM   16  C   LIG     1     -20.450 -12.170  -6.561  1.00  0.00     0.000 C 
BRANCH  16  17
HETATM   17  C   LIG     1     -21.108 -11.263  -5.520  1.00  0.00     0.000 C 
HETATM   18  C   LIG     1     -20.278 -10.015  -5.265  1.00  0.00     0.000 C 
ENDBRANCH  16  17
ENDBRANCH  15  16
ENDBRANCH   5  15
TORSDOF 3
ENDMDL
