MODEL 1
REMARK VINA RESULT:      -9.7      0.000      0.000
REMARK  1 active torsions:
REMARK  status: ('A' for Active; 'I' for Inactive)
REMARK    1  A    between atoms: C_10  and  C_15 
ROOT
HETATM    1 CL   LIG     1     -18.396 -17.742 -10.451  1.00  0.00    -0.084 Cl
HETATM    2  N   LIG     1     -22.329 -13.729 -12.364  1.00  0.00    -0.300 N 
HETATM    3  N   LIG     1     -22.707 -13.275  -9.367  1.00  0.00    -0.282 NA
HETATM    4  N   LIG     1     -23.640 -12.559 -13.751  1.00  0.00    -0.245 NA
HETATM    5  C   LIG     1     -21.461 -14.735 -11.878  1.00  0.00     0.053 A 
HETATM    6  C   LIG     1     -22.737 -12.605 -11.676  1.00  0.00     0.056 A 
HETATM    7  C   LIG     1     -21.350 -15.021 -10.502  1.00  0.00     0.022 A 
HETATM    8  C   LIG     1     -22.252 -12.278 -10.316  1.00  0.00     0.208 C 
HETATM    9  C   LIG     1     -22.295 -14.494  -9.462  1.00  0.00     0.077 C 
HETATM   10  C   LIG     1     -22.876 -13.621 -13.624  1.00  0.00     0.107 A 
HETATM   11  C   LIG     1     -23.558 -11.922 -12.545  1.00  0.00     0.145 A 
HETATM   12  C   LIG     1     -20.667 -15.437 -12.800  1.00  0.00     0.032 A 
HETATM   13  C   LIG     1     -20.380 -15.944 -10.074  1.00  0.00     0.040 A 
HETATM   14  C   LIG     1     -22.803 -14.654 -14.683  1.00  0.00     0.091 C 
HETATM   15  C   LIG     1     -19.728 -16.369 -12.357  1.00  0.00     0.026 A 
HETATM   16  C   LIG     1     -19.573 -16.611 -10.996  1.00  0.00     0.035 A 
ENDROOT
BRANCH   9  17
HETATM   17  C   LIG     1     -22.840 -15.452  -8.455  1.00  0.00     0.032 A 
HETATM   18  C   LIG     1     -22.140 -15.686  -7.279  1.00  0.00     0.129 A 
HETATM   19  F   LIG     1     -20.979 -15.063  -7.031  1.00  0.00    -0.205 F 
HETATM   20  C   LIG     1     -22.653 -16.580  -6.340  1.00  0.00     0.043 A 
HETATM   21  C   LIG     1     -23.860 -17.234  -6.585  1.00  0.00     0.003 A 
HETATM   22  C   LIG     1     -24.555 -16.992  -7.771  1.00  0.00     0.001 A 
HETATM   23  C   LIG     1     -24.043 -16.098  -8.710  1.00  0.00     0.017 A 
ENDBRANCH   9  17
TORSDOF 1
ENDMDL
