MODEL 1
REMARK VINA RESULT:      -9.1      0.000      0.000
REMARK  1 active torsions:
REMARK  status: ('A' for Active; 'I' for Inactive)
REMARK    1  A    between atoms: O_1  and  C_10 
ROOT
HETATM    1  O   LIG     1     -19.132 -21.863 -10.542  1.00  0.00    -0.293 OA
HETATM    2  C   LIG     1     -21.411 -15.067 -13.185  1.00  0.00     0.001 C 
HETATM    3  C   LIG     1     -21.437 -13.896 -12.184  1.00  0.00    -0.014 C 
HETATM    4  C   LIG     1     -20.271 -16.054 -12.910  1.00  0.00    -0.004 C 
HETATM    5  C   LIG     1     -20.449 -16.639 -11.473  1.00  0.00     0.002 C 
HETATM    6  C   LIG     1     -19.345 -17.705 -11.107  1.00  0.00    -0.016 C 
HETATM    7  C   LIG     1     -21.685 -14.472 -10.784  1.00  0.00     0.012 C 
HETATM    8  C   LIG     1     -20.623 -15.520 -10.409  1.00  0.00     0.007 C 
HETATM    9  C   LIG     1     -22.615 -13.093 -12.769  1.00  0.00     0.126 C 
HETATM   10  C   LIG     1     -21.487 -14.377 -14.544  1.00  0.00     0.008 C 
HETATM   11  C   LIG     1     -20.253 -17.188 -13.942  1.00  0.00     0.010 C 
HETATM   12  C   LIG     1     -22.390 -13.156 -14.293  1.00  0.00     0.033 C 
HETATM   13  C   LIG     1     -19.227 -18.732 -12.240  1.00  0.00    -0.068 C 
HETATM   14  C   LIG     1     -19.140 -18.184 -13.646  1.00  0.00     0.035 C 
HETATM   15  C   LIG     1     -20.151 -13.031 -12.168  1.00  0.00     0.018 C 
HETATM   16  C   LIG     1     -19.770 -18.414  -9.788  1.00  0.00     0.022 C 
HETATM   17  C   LIG     1     -17.959 -17.053 -10.900  1.00  0.00     0.020 C 
HETATM   18  C   LIG     1     -19.010 -19.703  -9.516  1.00  0.00     0.084 C 
HETATM   19  C   LIG     1     -19.175 -20.060 -12.048  1.00  0.00     0.053 C 
HETATM   20  C   LIG     1     -19.135 -20.642 -10.686  1.00  0.00     0.149 C 
ENDROOT
BRANCH   9  21
HETATM   21  O   LIG     1     -22.661 -11.759 -12.301  1.00  0.00    -0.395 OA
HETATM   22  H   LIG     1     -23.236 -11.719 -11.519  1.00  0.00     0.210 HD
ENDBRANCH   9  21
TORSDOF 1
ENDMDL
