MODEL 1
REMARK VINA RESULT:      -9.4      0.000      0.000
REMARK  1 active torsions:
REMARK  status: ('A' for Active; 'I' for Inactive)
REMARK    1  A    between atoms: O_4  and  C_17 
ROOT
HETATM    1  O   LIG     1     -23.027 -23.341 -15.016  1.00  0.00    -0.318 OA
HETATM    2  O   LIG     1     -24.546 -24.046 -16.720  1.00  0.00    -0.331 OA
HETATM    3  O   LIG     1     -24.794 -18.986 -15.318  1.00  0.00    -0.273 OA
HETATM    4  O   LIG     1     -23.741 -14.704 -14.824  1.00  0.00    -0.292 OA
HETATM    5  O   LIG     1     -25.692 -16.879 -15.482  1.00  0.00    -0.259 OA
HETATM    6  C   LIG     1     -25.011 -21.984 -15.517  1.00  0.00     0.105 A 
HETATM    7  C   LIG     1     -23.829 -21.177 -15.149  1.00  0.00     0.023 A 
HETATM    8  C   LIG     1     -24.415 -23.408 -15.428  1.00  0.00     0.284 A 
HETATM    9  C   LIG     1     -23.678 -19.806 -15.041  1.00  0.00     0.103 A 
HETATM   10  C   LIG     1     -22.446 -19.256 -14.663  1.00  0.00     0.039 A 
HETATM   11  C   LIG     1     -22.755 -22.007 -14.875  1.00  0.00     0.084 A 
HETATM   12  C   LIG     1     -22.356 -17.807 -14.570  1.00  0.00    -0.022 A 
HETATM   13  C   LIG     1     -21.130 -17.045 -14.184  1.00  0.00     0.048 A 
HETATM   14  C   LIG     1     -25.420 -21.926 -16.936  1.00  0.00     0.012 A 
HETATM   15  C   LIG     1     -23.429 -17.062 -14.842  1.00  0.00     0.092 A 
HETATM   16  C   LIG     1     -21.369 -20.120 -14.393  1.00  0.00     0.084 A 
HETATM   17  C   LIG     1     -21.564 -15.582 -14.239  1.00  0.00     0.089 A 
HETATM   18  C   LIG     1     -21.521 -21.507 -14.498  1.00  0.00     0.075 A 
HETATM   19  C   LIG     1     -23.006 -15.667 -14.657  1.00  0.00     0.166 A 
HETATM   20  C   LIG     1     -25.142 -23.089 -17.510  1.00  0.00     0.135 A 
HETATM   21  C   LIG     1     -24.730 -17.596 -15.238  1.00  0.00     0.302 A 
ENDROOT
BRANCH  16  22
HETATM   22  O   LIG     1     -20.138 -19.667 -14.017  1.00  0.00    -0.355 OA
HETATM   23  C   LIG     1     -19.459 -20.407 -13.005  1.00  0.00     0.210 C 
ENDBRANCH  16  22
TORSDOF 1
ENDMDL
