MODEL 1
REMARK VINA RESULT:      -9.8      0.000      0.000
REMARK  4 active torsions:
REMARK  status: ('A' for Active; 'I' for Inactive)
REMARK    1  A    between atoms: O_5  and  C_10 
REMARK    2  A    between atoms: O_5  and  C_15 
REMARK    3  A    between atoms: C_9  and  C_16 
REMARK    4  A    between atoms: C_15  and  C_17 
ROOT
HETATM    1  O   LIG     1     -21.430 -20.322 -13.106  1.00  0.00    -0.275 OA
HETATM    2  O   LIG     1     -19.980 -21.712 -14.198  1.00  0.00    -0.260 OA
HETATM    3  C   LIG     1     -23.757 -20.206 -13.840  1.00  0.00     0.013 A 
HETATM    4  C   LIG     1     -22.734 -19.801 -12.982  1.00  0.00     0.093 A 
HETATM    5  C   LIG     1     -23.450 -21.193 -14.884  1.00  0.00     0.066 A 
HETATM    6  C   LIG     1     -24.207 -18.320 -11.793  1.00  0.00     0.071 A 
HETATM    7  C   LIG     1     -25.026 -19.642 -13.652  1.00  0.00     0.018 A 
HETATM    8  C   LIG     1     -22.940 -18.868 -11.964  1.00  0.00     0.075 A 
HETATM    9  C   LIG     1     -25.248 -18.706 -12.635  1.00  0.00     0.038 A 
HETATM   10  C   LIG     1     -22.201 -21.671 -14.978  1.00  0.00     0.099 A 
HETATM   11  C   LIG     1     -21.111 -21.253 -14.081  1.00  0.00     0.289 A 
ENDROOT
BRANCH   6  12
HETATM   12  O   LIG     1     -24.429 -17.409 -10.806  1.00  0.00    -0.347 OA
BRANCH  12  13
HETATM   13  C   LIG     1     -23.291 -16.727 -10.283  1.00  0.00     0.214 C 
BRANCH  13  14
HETATM   14  C   LIG     1     -23.249 -17.007  -8.813  1.00  0.00    -0.034 A 
HETATM   15  C   LIG     1     -24.369 -16.750  -8.027  1.00  0.00     0.009 A 
HETATM   16  C   LIG     1     -24.329 -17.012  -6.658  1.00  0.00     0.001 A 
HETATM   17  C   LIG     1     -23.169 -17.529  -6.080  1.00  0.00     0.000 A 
HETATM   18  C   LIG     1     -22.049 -17.783  -6.871  1.00  0.00     0.001 A 
HETATM   19  C   LIG     1     -22.089 -17.522  -8.240  1.00  0.00     0.009 A 
ENDBRANCH  13  14
ENDBRANCH  12  13
ENDBRANCH   6  12
BRANCH   5  20
HETATM   20  C   LIG     1     -24.528 -21.650 -15.823  1.00  0.00     0.418 C 
HETATM   21  F   LIG     1     -25.547 -22.215 -15.147  1.00  0.00    -0.166 F 
HETATM   22  F   LIG     1     -24.051 -22.562 -16.693  1.00  0.00    -0.166 F 
HETATM   23  F   LIG     1     -25.021 -20.617 -16.533  1.00  0.00    -0.166 F 
ENDBRANCH   5  20
TORSDOF 4
ENDMDL
