MODEL 1
REMARK VINA RESULT:      -8.6      0.000      0.000
REMARK  1 active torsions:
REMARK  status: ('A' for Active; 'I' for Inactive)
REMARK    1  A    between atoms: C_7  and  C_10 
ROOT
HETATM    1 CL   LIG     1     -24.734 -10.997 -11.073  1.00  0.00    -0.084 Cl
HETATM    2  O   LIG     1     -18.314 -15.555 -12.958  1.00  0.00    -0.271 OA
HETATM    3  N   LIG     1     -20.226 -14.864 -11.820  1.00  0.00    -0.320 N 
HETATM    4  N   LIG     1     -20.258 -13.606 -14.583  1.00  0.00    -0.279 NA
HETATM    5  C   LIG     1     -21.897 -13.265 -12.780  1.00  0.00     0.022 A 
HETATM    6  C   LIG     1     -21.331 -13.955 -11.687  1.00  0.00     0.049 A 
HETATM    7  C   LIG     1     -21.485 -13.521 -14.192  1.00  0.00     0.074 C 
HETATM    8  C   LIG     1     -19.222 -13.456 -13.583  1.00  0.00     0.252 C 
HETATM    9  C   LIG     1     -19.213 -14.730 -12.777  1.00  0.00     0.243 C 
HETATM   10  C   LIG     1     -22.936 -12.339 -12.579  1.00  0.00     0.040 A 
HETATM   11  C   LIG     1     -21.901 -13.739 -10.416  1.00  0.00     0.032 A 
HETATM   12  C   LIG     1     -20.116 -15.959 -10.855  1.00  0.00     0.159 C 
HETATM   13  C   LIG     1     -23.456 -12.124 -11.306  1.00  0.00     0.035 A 
HETATM   14  C   LIG     1     -22.947 -12.833 -10.227  1.00  0.00     0.026 A 
ENDROOT
BRANCH   7  15
HETATM   15  C   LIG     1     -22.540 -13.712 -15.228  1.00  0.00    -0.007 A 
HETATM   16  C   LIG     1     -23.588 -14.593 -14.987  1.00  0.00     0.014 A 
HETATM   17  C   LIG     1     -24.576 -14.772 -15.956  1.00  0.00     0.001 A 
HETATM   18  C   LIG     1     -24.509 -14.068 -17.158  1.00  0.00     0.000 A 
HETATM   19  C   LIG     1     -23.453 -13.185 -17.392  1.00  0.00     0.001 A 
HETATM   20  C   LIG     1     -22.466 -13.007 -16.423  1.00  0.00     0.014 A 
ENDBRANCH   7  15
TORSDOF 1
ENDMDL
