MODEL 1
REMARK VINA RESULT:      -6.6      0.000      0.000
REMARK  4 active torsions:
REMARK  status: ('A' for Active; 'I' for Inactive)
REMARK    1  A    between atoms: C_4  and  C_6 
REMARK    2  A    between atoms: C_5  and  C_14 
REMARK    3  A    between atoms: C_7  and  N_16 
REMARK    4  A    between atoms: C_10  and  N_19 
ROOT
HETATM    1  N   LIG     1     -20.149 -12.969 -12.023  1.00  0.00    -0.066 NA
HETATM    2  N   LIG     1     -19.245 -15.162 -12.451  1.00  0.00    -0.045 NA
HETATM    3  C   LIG     1     -20.890 -14.854 -10.718  1.00  0.00     0.048 A 
HETATM    4  C   LIG     1     -20.907 -13.513 -11.047  1.00  0.00     0.080 A 
HETATM    5  C   LIG     1     -20.031 -15.639 -11.462  1.00  0.00     0.153 A 
HETATM    6  C   LIG     1     -19.352 -13.838 -12.674  1.00  0.00     0.722 A 
ENDROOT
BRANCH   3   7
HETATM    7  C   LIG     1     -21.723 -15.391  -9.663  1.00  0.00     0.004 A 
HETATM    8  C   LIG     1     -21.254 -15.419  -8.351  1.00  0.00     0.001 A 
HETATM    9  C   LIG     1     -22.055 -15.937  -7.334  1.00  0.00     0.011 A 
HETATM   10  C   LIG     1     -23.327 -16.428  -7.631  1.00  0.00     0.058 A 
HETATM   11 CL   LIG     1     -24.316 -17.069  -6.377  1.00  0.00    -0.082 Cl
HETATM   12  C   LIG     1     -23.796 -16.401  -8.944  1.00  0.00     0.011 A 
HETATM   13  C   LIG     1     -22.994 -15.883  -9.961  1.00  0.00     0.001 A 
ENDBRANCH   3   7
BRANCH   5  14
HETATM   14  N   LIG     1     -19.960 -17.026 -11.182  1.00  0.00    -0.383 N 
HETATM   15  H   LIG     1     -20.362 -17.328 -10.303  1.00  0.00     0.157 HD
HETATM   16  H   LIG     1     -19.983 -17.682 -11.953  1.00  0.00     0.157 HD
ENDBRANCH   5  14
BRANCH   4  17
HETATM   17  C   LIG     1     -21.792 -12.553 -10.319  1.00  0.00     0.047 C 
HETATM   18  C   LIG     1     -23.027 -12.179 -11.135  1.00  0.00     0.007 C 
ENDBRANCH   4  17
BRANCH   6  19
HETATM   19  N   LIG     1     -18.545 -13.306 -13.702  1.00  0.00    -0.231 N 
HETATM   20  H   LIG     1     -18.982 -12.873 -14.505  1.00  0.00     0.174 HD
HETATM   21  H   LIG     1     -17.539 -13.363 -13.624  1.00  0.00     0.174 HD
ENDBRANCH   6  19
TORSDOF 4
ENDMDL
