MODEL 1
REMARK VINA RESULT:     -10.2      0.000      0.000
REMARK  13 active torsions:
REMARK  status: ('A' for Active; 'I' for Inactive)
REMARK    1  A    between atoms: O_1  and  C_12 
REMARK    2  A    between atoms: O_1  and  C_17 
REMARK    3  A    between atoms: N_5  and  C_18 
REMARK       I    between atoms: N_5  and  C_32 
REMARK    4  A    between atoms: C_6  and  C_11 
REMARK    5  A    between atoms: C_6  and  C_12 
REMARK    6  A    between atoms: C_9  and  C_14 
REMARK    7  A    between atoms: C_11  and  C_13 
REMARK    8  A    between atoms: C_13  and  C_15 
REMARK    9  A    between atoms: C_15  and  C_16 
REMARK   10  A    between atoms: C_16  and  C_18 
REMARK   11  A    between atoms: C_17  and  C_21 
REMARK   12  A    between atoms: C_17  and  C_22 
REMARK   13  A    between atoms: C_17  and  C_23 
ROOT
HETATM    1  C   LIG     1     -22.010 -15.192  -9.634  1.00  0.00    -0.018 C 
HETATM    2  C   LIG     1     -20.933 -14.529  -8.761  1.00  0.00     0.024 C 
HETATM    3  C   LIG     1     -23.242 -14.330  -9.326  1.00  0.00     0.012 C 
HETATM    4  C   LIG     1     -21.239 -13.020  -8.815  1.00  0.00     0.056 C 
HETATM    5  C   LIG     1     -22.712 -12.899  -9.247  1.00  0.00     0.013 C 
ENDROOT
BRANCH   1   6
HETATM    6  C   LIG     1     -22.236 -16.652  -9.237  1.00  0.00     0.012 C 
BRANCH   6   7
HETATM    7  C   LIG     1     -21.317 -17.070  -8.088  1.00  0.00     0.001 C 
BRANCH   7   8
HETATM    8  C   LIG     1     -20.853 -18.521  -8.250  1.00  0.00     0.006 C 
BRANCH   8   9
HETATM    9  C   LIG     1     -19.694 -18.693  -9.260  1.00  0.00     0.004 C 
HETATM   10  C   LIG     1     -18.847 -17.418  -9.368  1.00  0.00     0.012 C 
BRANCH   9  11
HETATM   11  C   LIG     1     -18.855 -19.952  -8.909  1.00  0.00     0.084 C 
HETATM   12  C   LIG     1     -19.010 -20.389  -7.454  1.00  0.00     0.032 C 
BRANCH  11  13
HETATM   13  N   LIG     1     -19.129 -21.065  -9.788  1.00  0.00    -0.357 N 
HETATM   14  C   LIG     1     -19.130 -20.958 -11.168  1.00  0.00     0.213 C 
HETATM   15  O   LIG     1     -18.905 -19.936 -11.812  1.00  0.00    -0.274 OA
HETATM   16  C   LIG     1     -19.420 -22.272 -11.842  1.00  0.00     0.117 C 
HETATM   17  H   LIG     1     -19.255 -21.983  -9.373  1.00  0.00     0.162 HD
ENDBRANCH  11  13
ENDBRANCH   9  11
ENDBRANCH   8   9
ENDBRANCH   7   8
ENDBRANCH   6   7
ENDBRANCH   1   6
BRANCH   1  18
HETATM   18  C   LIG     1     -21.638 -15.126 -11.124  1.00  0.00     0.179 C 
BRANCH  18  19
HETATM   19  O   LIG     1     -22.680 -15.727 -11.864  1.00  0.00    -0.365 OA
BRANCH  19  20
HETATM   20  C   LIG     1     -22.381 -15.780 -13.256  1.00  0.00     0.142 C 
BRANCH  20  21
HETATM   21  C   LIG     1     -20.843 -15.783 -13.401  1.00  0.00    -0.015 A 
HETATM   22  C   LIG     1     -20.101 -16.874 -12.949  1.00  0.00     0.011 A 
HETATM   23  C   LIG     1     -18.712 -16.877 -13.081  1.00  0.00     0.001 A 
HETATM   24  C   LIG     1     -18.066 -15.788 -13.665  1.00  0.00     0.000 A 
HETATM   25  C   LIG     1     -18.808 -14.696 -14.118  1.00  0.00     0.001 A 
HETATM   26  C   LIG     1     -20.196 -14.695 -13.986  1.00  0.00     0.011 A 
ENDBRANCH  20  21
BRANCH  20  27
HETATM   27  C   LIG     1     -23.050 -17.077 -13.760  1.00  0.00    -0.015 A 
HETATM   28  C   LIG     1     -24.314 -17.438 -13.291  1.00  0.00     0.011 A 
HETATM   29  C   LIG     1     -24.918 -18.610 -13.748  1.00  0.00     0.001 A 
HETATM   30  C   LIG     1     -24.260 -19.419 -14.674  1.00  0.00     0.000 A 
HETATM   31  C   LIG     1     -22.998 -19.057 -15.143  1.00  0.00     0.001 A 
HETATM   32  C   LIG     1     -22.392 -17.886 -14.687  1.00  0.00     0.011 A 
ENDBRANCH  20  27
BRANCH  20  33
HETATM   33  C   LIG     1     -23.037 -14.515 -13.853  1.00  0.00    -0.015 A 
HETATM   34  C   LIG     1     -23.114 -13.346 -13.096  1.00  0.00     0.011 A 
HETATM   35  C   LIG     1     -23.706 -12.205 -13.636  1.00  0.00     0.001 A 
HETATM   36  C   LIG     1     -24.221 -12.231 -14.932  1.00  0.00     0.000 A 
HETATM   37  C   LIG     1     -24.142 -13.401 -15.689  1.00  0.00     0.001 A 
HETATM   38  C   LIG     1     -23.551 -14.542 -15.150  1.00  0.00     0.011 A 
ENDBRANCH  20  33
ENDBRANCH  19  20
ENDBRANCH  18  19
ENDBRANCH   1  18
BRANCH   4  39
HETATM   39  C   LIG     1     -20.927 -12.311  -7.512  1.00  0.00     0.107 A 
HETATM   40  N   LIG     1     -21.921 -11.824  -6.710  1.00  0.00    -0.353 N 
HETATM   41  C   LIG     1     -21.326 -11.247  -5.624  1.00  0.00     0.109 A 
HETATM   42  H   LIG     1     -22.916 -11.879  -6.886  1.00  0.00     0.166 HD
HETATM   43  C   LIG     1     -19.978 -11.419  -5.829  1.00  0.00     0.135 A 
HETATM   44  N   LIG     1     -19.735 -12.081  -7.007  1.00  0.00    -0.246 NA
ENDBRANCH   4  39
TORSDOF 13
ENDMDL
MODEL 2
REMARK VINA RESULT:     -10.1      3.356      7.036
REMARK  13 active torsions:
REMARK  status: ('A' for Active; 'I' for Inactive)
REMARK    1  A    between atoms: O_1  and  C_12 
REMARK    2  A    between atoms: O_1  and  C_17 
REMARK    3  A    between atoms: N_5  and  C_18 
REMARK       I    between atoms: N_5  and  C_32 
REMARK    4  A    between atoms: C_6  and  C_11 
REMARK    5  A    between atoms: C_6  and  C_12 
REMARK    6  A    between atoms: C_9  and  C_14 
REMARK    7  A    between atoms: C_11  and  C_13 
REMARK    8  A    between atoms: C_13  and  C_15 
REMARK    9  A    between atoms: C_15  and  C_16 
REMARK   10  A    between atoms: C_16  and  C_18 
REMARK   11  A    between atoms: C_17  and  C_21 
REMARK   12  A    between atoms: C_17  and  C_22 
REMARK   13  A    between atoms: C_17  and  C_23 
ROOT
HETATM    1  C   LIG     1     -22.694 -15.782 -13.618  1.00  0.00    -0.018 C 
HETATM    2  C   LIG     1     -23.730 -15.138 -14.552  1.00  0.00     0.024 C 
HETATM    3  C   LIG     1     -21.373 -15.260 -14.200  1.00  0.00     0.012 C 
HETATM    4  C   LIG     1     -23.168 -13.741 -14.878  1.00  0.00     0.056 C 
HETATM    5  C   LIG     1     -21.658 -13.808 -14.583  1.00  0.00     0.013 C 
ENDROOT
BRANCH   1   6
HETATM    6  C   LIG     1     -22.762 -17.310 -13.670  1.00  0.00     0.012 C 
BRANCH   6   7
HETATM    7  C   LIG     1     -22.300 -17.846 -15.026  1.00  0.00     0.001 C 
BRANCH   7   8
HETATM    8  C   LIG     1     -23.315 -18.837 -15.605  1.00  0.00     0.006 C 
BRANCH   8   9
HETATM    9  C   LIG     1     -23.593 -20.049 -14.684  1.00  0.00     0.004 C 
HETATM   10  C   LIG     1     -25.093 -20.364 -14.605  1.00  0.00     0.012 C 
BRANCH   9  11
HETATM   11  C   LIG     1     -22.739 -21.268 -15.124  1.00  0.00     0.084 C 
HETATM   12  C   LIG     1     -21.325 -21.249 -14.547  1.00  0.00     0.032 C 
BRANCH  11  13
HETATM   13  N   LIG     1     -23.374 -22.530 -14.825  1.00  0.00    -0.357 N 
HETATM   14  C   LIG     1     -24.092 -23.257 -15.760  1.00  0.00     0.213 C 
HETATM   15  O   LIG     1     -24.280 -22.938 -16.931  1.00  0.00    -0.274 OA
HETATM   16  C   LIG     1     -24.627 -24.544 -15.192  1.00  0.00     0.117 C 
HETATM   17  H   LIG     1     -23.225 -22.936 -13.906  1.00  0.00     0.162 HD
ENDBRANCH  11  13
ENDBRANCH   9  11
ENDBRANCH   8   9
ENDBRANCH   7   8
ENDBRANCH   6   7
ENDBRANCH   1   6
BRANCH   1  18
HETATM   18  C   LIG     1     -22.889 -15.318 -12.165  1.00  0.00     0.179 C 
BRANCH  18  19
HETATM   19  O   LIG     1     -22.509 -16.377 -11.311  1.00  0.00    -0.365 OA
BRANCH  19  20
HETATM   20  C   LIG     1     -21.812 -15.907 -10.161  1.00  0.00     0.142 C 
BRANCH  20  21
HETATM   21  C   LIG     1     -22.646 -16.297  -8.920  1.00  0.00    -0.015 A 
HETATM   22  C   LIG     1     -22.074 -16.241  -7.649  1.00  0.00     0.011 A 
HETATM   23  C   LIG     1     -22.827 -16.593  -6.529  1.00  0.00     0.001 A 
HETATM   24  C   LIG     1     -24.152 -16.999  -6.679  1.00  0.00     0.000 A 
HETATM   25  C   LIG     1     -24.725 -17.056  -7.950  1.00  0.00     0.001 A 
HETATM   26  C   LIG     1     -23.972 -16.704  -9.070  1.00  0.00     0.011 A 
ENDBRANCH  20  21
BRANCH  20  27
HETATM   27  C   LIG     1     -20.432 -16.598 -10.218  1.00  0.00    -0.015 A 
HETATM   28  C   LIG     1     -19.675 -16.741  -9.055  1.00  0.00     0.011 A 
HETATM   29  C   LIG     1     -18.429 -17.365  -9.107  1.00  0.00     0.001 A 
HETATM   30  C   LIG     1     -17.940 -17.847 -10.321  1.00  0.00     0.000 A 
HETATM   31  C   LIG     1     -18.697 -17.705 -11.484  1.00  0.00     0.001 A 
HETATM   32  C   LIG     1     -19.944 -17.080 -11.433  1.00  0.00     0.011 A 
ENDBRANCH  20  27
BRANCH  20  33
HETATM   33  C   LIG     1     -21.707 -14.378 -10.355  1.00  0.00    -0.015 A 
HETATM   34  C   LIG     1     -20.631 -13.836 -11.058  1.00  0.00     0.011 A 
HETATM   35  C   LIG     1     -20.537 -12.456 -11.234  1.00  0.00     0.001 A 
HETATM   36  C   LIG     1     -21.518 -11.617 -10.706  1.00  0.00     0.000 A 
HETATM   37  C   LIG     1     -22.595 -12.159 -10.004  1.00  0.00     0.001 A 
HETATM   38  C   LIG     1     -22.690 -13.539  -9.828  1.00  0.00     0.011 A 
ENDBRANCH  20  33
ENDBRANCH  19  20
ENDBRANCH  18  19
ENDBRANCH   1  18
BRANCH   4  39
HETATM   39  C   LIG     1     -23.493 -13.293 -16.290  1.00  0.00     0.107 A 
HETATM   40  N   LIG     1     -23.689 -11.974 -16.591  1.00  0.00    -0.353 N 
HETATM   41  C   LIG     1     -23.961 -11.895 -17.928  1.00  0.00     0.109 A 
HETATM   42  H   LIG     1     -23.642 -11.197 -15.945  1.00  0.00     0.166 HD
HETATM   43  C   LIG     1     -23.914 -13.194 -18.373  1.00  0.00     0.135 A 
HETATM   44  N   LIG     1     -23.623 -14.060 -17.349  1.00  0.00    -0.246 NA
ENDBRANCH   4  39
TORSDOF 13
ENDMDL
MODEL 3
REMARK VINA RESULT:     -10.1      0.170      3.495
REMARK  13 active torsions:
REMARK  status: ('A' for Active; 'I' for Inactive)
REMARK    1  A    between atoms: O_1  and  C_12 
REMARK    2  A    between atoms: O_1  and  C_17 
REMARK    3  A    between atoms: N_5  and  C_18 
REMARK       I    between atoms: N_5  and  C_32 
REMARK    4  A    between atoms: C_6  and  C_11 
REMARK    5  A    between atoms: C_6  and  C_12 
REMARK    6  A    between atoms: C_9  and  C_14 
REMARK    7  A    between atoms: C_11  and  C_13 
REMARK    8  A    between atoms: C_13  and  C_15 
REMARK    9  A    between atoms: C_15  and  C_16 
REMARK   10  A    between atoms: C_16  and  C_18 
REMARK   11  A    between atoms: C_17  and  C_21 
REMARK   12  A    between atoms: C_17  and  C_22 
REMARK   13  A    between atoms: C_17  and  C_23 
ROOT
HETATM    1  C   LIG     1     -22.020 -15.152  -9.782  1.00  0.00    -0.018 C 
HETATM    2  C   LIG     1     -20.919 -14.481  -8.945  1.00  0.00     0.024 C 
HETATM    3  C   LIG     1     -23.267 -14.367  -9.353  1.00  0.00     0.012 C 
HETATM    4  C   LIG     1     -21.296 -12.988  -8.902  1.00  0.00     0.056 C 
HETATM    5  C   LIG     1     -22.798 -12.917  -9.234  1.00  0.00     0.013 C 
ENDROOT
BRANCH   1   6
HETATM    6  C   LIG     1     -22.153 -16.639  -9.447  1.00  0.00     0.012 C 
BRANCH   6   7
HETATM    7  C   LIG     1     -21.323 -17.015  -8.218  1.00  0.00     0.001 C 
BRANCH   7   8
HETATM    8  C   LIG     1     -20.829 -18.463  -8.304  1.00  0.00     0.006 C 
BRANCH   8   9
HETATM    9  C   LIG     1     -19.638 -18.655  -9.273  1.00  0.00     0.004 C 
HETATM   10  C   LIG     1     -18.756 -17.402  -9.338  1.00  0.00     0.012 C 
BRANCH   9  11
HETATM   11  C   LIG     1     -18.846 -19.938  -8.904  1.00  0.00     0.084 C 
HETATM   12  C   LIG     1     -19.044 -20.369  -7.453  1.00  0.00     0.032 C 
BRANCH  11  13
HETATM   13  N   LIG     1     -19.135 -21.043  -9.788  1.00  0.00    -0.357 N 
HETATM   14  C   LIG     1     -19.149 -20.927 -11.168  1.00  0.00     0.213 C 
HETATM   15  O   LIG     1     -18.926 -19.902 -11.807  1.00  0.00    -0.274 OA
HETATM   16  C   LIG     1     -19.454 -22.235 -11.848  1.00  0.00     0.117 C 
HETATM   17  H   LIG     1     -19.262 -21.964  -9.379  1.00  0.00     0.162 HD
ENDBRANCH  11  13
ENDBRANCH   9  11
ENDBRANCH   8   9
ENDBRANCH   7   8
ENDBRANCH   6   7
ENDBRANCH   1   6
BRANCH   1  18
HETATM   18  C   LIG     1     -21.748 -14.997 -11.287  1.00  0.00     0.179 C 
BRANCH  18  19
HETATM   19  O   LIG     1     -22.761 -15.687 -11.989  1.00  0.00    -0.365 OA
BRANCH  19  20
HETATM   20  C   LIG     1     -22.477 -15.774 -13.382  1.00  0.00     0.142 C 
BRANCH  20  21
HETATM   21  C   LIG     1     -23.127 -14.551 -14.067  1.00  0.00    -0.015 A 
HETATM   22  C   LIG     1     -23.702 -14.683 -15.330  1.00  0.00     0.011 A 
HETATM   23  C   LIG     1     -24.289 -13.579 -15.949  1.00  0.00     0.001 A 
HETATM   24  C   LIG     1     -24.300 -12.343 -15.304  1.00  0.00     0.000 A 
HETATM   25  C   LIG     1     -23.724 -12.210 -14.040  1.00  0.00     0.001 A 
HETATM   26  C   LIG     1     -23.138 -13.314 -13.422  1.00  0.00     0.011 A 
ENDBRANCH  20  21
BRANCH  20  27
HETATM   27  C   LIG     1     -20.936 -15.788 -13.477  1.00  0.00    -0.015 A 
HETATM   28  C   LIG     1     -20.210 -16.827 -12.895  1.00  0.00     0.011 A 
HETATM   29  C   LIG     1     -18.818 -16.839 -12.981  1.00  0.00     0.001 A 
HETATM   30  C   LIG     1     -18.151 -15.814 -13.651  1.00  0.00     0.000 A 
HETATM   31  C   LIG     1     -18.877 -14.775 -14.234  1.00  0.00     0.001 A 
HETATM   32  C   LIG     1     -20.269 -14.762 -14.148  1.00  0.00     0.011 A 
ENDBRANCH  20  27
BRANCH  20  33
HETATM   33  C   LIG     1     -23.101 -17.114 -13.833  1.00  0.00    -0.015 A 
HETATM   34  C   LIG     1     -24.366 -17.483 -13.376  1.00  0.00     0.011 A 
HETATM   35  C   LIG     1     -24.929 -18.692 -13.783  1.00  0.00     0.001 A 
HETATM   36  C   LIG     1     -24.227 -19.533 -14.648  1.00  0.00     0.000 A 
HETATM   37  C   LIG     1     -22.962 -19.163 -15.105  1.00  0.00     0.001 A 
HETATM   38  C   LIG     1     -22.398 -17.954 -14.697  1.00  0.00     0.011 A 
ENDBRANCH  20  33
ENDBRANCH  19  20
ENDBRANCH  18  19
ENDBRANCH   1  18
BRANCH   4  39
HETATM   39  C   LIG     1     -20.932 -12.329  -7.587  1.00  0.00     0.107 A 
HETATM   40  N   LIG     1     -21.893 -11.881  -6.724  1.00  0.00    -0.353 N 
HETATM   41  C   LIG     1     -21.256 -11.343  -5.643  1.00  0.00     0.109 A 
HETATM   42  H   LIG     1     -22.895 -11.937  -6.860  1.00  0.00     0.166 HD
HETATM   43  C   LIG     1     -19.917 -11.495  -5.912  1.00  0.00     0.135 A 
HETATM   44  N   LIG     1     -19.721 -12.109  -7.124  1.00  0.00    -0.246 NA
ENDBRANCH   4  39
TORSDOF 13
ENDMDL
MODEL 4
REMARK VINA RESULT:     -10.1      3.361      7.167
REMARK  13 active torsions:
REMARK  status: ('A' for Active; 'I' for Inactive)
REMARK    1  A    between atoms: O_1  and  C_12 
REMARK    2  A    between atoms: O_1  and  C_17 
REMARK    3  A    between atoms: N_5  and  C_18 
REMARK       I    between atoms: N_5  and  C_32 
REMARK    4  A    between atoms: C_6  and  C_11 
REMARK    5  A    between atoms: C_6  and  C_12 
REMARK    6  A    between atoms: C_9  and  C_14 
REMARK    7  A    between atoms: C_11  and  C_13 
REMARK    8  A    between atoms: C_13  and  C_15 
REMARK    9  A    between atoms: C_15  and  C_16 
REMARK   10  A    between atoms: C_16  and  C_18 
REMARK   11  A    between atoms: C_17  and  C_21 
REMARK   12  A    between atoms: C_17  and  C_22 
REMARK   13  A    between atoms: C_17  and  C_23 
ROOT
HETATM    1  C   LIG     1     -22.667 -15.827 -13.581  1.00  0.00    -0.018 C 
HETATM    2  C   LIG     1     -23.705 -15.239 -14.550  1.00  0.00     0.024 C 
HETATM    3  C   LIG     1     -21.358 -15.235 -14.120  1.00  0.00     0.012 C 
HETATM    4  C   LIG     1     -23.207 -13.813 -14.859  1.00  0.00     0.056 C 
HETATM    5  C   LIG     1     -21.707 -13.801 -14.514  1.00  0.00     0.013 C 
ENDROOT
BRANCH   1   6
HETATM    6  C   LIG     1     -22.653 -17.357 -13.633  1.00  0.00     0.012 C 
BRANCH   6   7
HETATM    7  C   LIG     1     -22.259 -17.867 -15.020  1.00  0.00     0.001 C 
BRANCH   7   8
HETATM    8  C   LIG     1     -23.318 -18.824 -15.579  1.00  0.00     0.006 C 
BRANCH   8   9
HETATM    9  C   LIG     1     -23.596 -20.042 -14.666  1.00  0.00     0.004 C 
HETATM   10  C   LIG     1     -25.098 -20.340 -14.568  1.00  0.00     0.012 C 
BRANCH   9  11
HETATM   11  C   LIG     1     -22.762 -21.266 -15.130  1.00  0.00     0.084 C 
HETATM   12  C   LIG     1     -21.337 -21.263 -14.582  1.00  0.00     0.032 C 
BRANCH  11  13
HETATM   13  N   LIG     1     -23.403 -22.523 -14.824  1.00  0.00    -0.357 N 
HETATM   14  C   LIG     1     -24.106 -23.263 -15.760  1.00  0.00     0.213 C 
HETATM   15  O   LIG     1     -24.275 -22.960 -16.939  1.00  0.00    -0.274 OA
HETATM   16  C   LIG     1     -24.650 -24.542 -15.184  1.00  0.00     0.117 C 
HETATM   17  H   LIG     1     -23.269 -22.917 -13.898  1.00  0.00     0.162 HD
ENDBRANCH  11  13
ENDBRANCH   9  11
ENDBRANCH   8   9
ENDBRANCH   7   8
ENDBRANCH   6   7
ENDBRANCH   1   6
BRANCH   1  18
HETATM   18  C   LIG     1     -22.935 -15.375 -12.136  1.00  0.00     0.179 C 
BRANCH  18  19
HETATM   19  O   LIG     1     -22.501 -16.401 -11.267  1.00  0.00    -0.365 OA
BRANCH  19  20
HETATM   20  C   LIG     1     -21.813 -15.881 -10.134  1.00  0.00     0.142 C 
BRANCH  20  21
HETATM   21  C   LIG     1     -21.707 -14.350 -10.315  1.00  0.00    -0.015 A 
HETATM   22  C   LIG     1     -22.687 -13.515  -9.778  1.00  0.00     0.011 A 
HETATM   23  C   LIG     1     -22.591 -12.132  -9.942  1.00  0.00     0.001 A 
HETATM   24  C   LIG     1     -21.515 -11.586 -10.641  1.00  0.00     0.000 A 
HETATM   25  C   LIG     1     -20.535 -12.422 -11.178  1.00  0.00     0.001 A 
HETATM   26  C   LIG     1     -20.632 -13.803 -11.015  1.00  0.00     0.011 A 
ENDBRANCH  20  21
BRANCH  20  27
HETATM   27  C   LIG     1     -22.668 -16.300  -8.918  1.00  0.00    -0.015 A 
HETATM   28  C   LIG     1     -22.122 -16.262  -7.635  1.00  0.00     0.011 A 
HETATM   29  C   LIG     1     -22.895 -16.641  -6.537  1.00  0.00     0.001 A 
HETATM   30  C   LIG     1     -24.213 -17.056  -6.721  1.00  0.00     0.000 A 
HETATM   31  C   LIG     1     -24.759 -17.093  -8.004  1.00  0.00     0.001 A 
HETATM   32  C   LIG     1     -23.987 -16.715  -9.103  1.00  0.00     0.011 A 
ENDBRANCH  20  27
BRANCH  20  33
HETATM   33  C   LIG     1     -20.437 -16.582 -10.147  1.00  0.00    -0.015 A 
HETATM   34  C   LIG     1     -19.688 -16.674  -8.974  1.00  0.00     0.011 A 
HETATM   35  C   LIG     1     -18.446 -17.307  -8.987  1.00  0.00     0.001 A 
HETATM   36  C   LIG     1     -17.951 -17.849 -10.173  1.00  0.00     0.000 A 
HETATM   37  C   LIG     1     -18.700 -17.758 -11.347  1.00  0.00     0.001 A 
HETATM   38  C   LIG     1     -19.942 -17.124 -11.334  1.00  0.00     0.011 A 
ENDBRANCH  20  33
ENDBRANCH  19  20
ENDBRANCH  18  19
ENDBRANCH   1  18
BRANCH   4  39
HETATM   39  C   LIG     1     -23.508 -13.383 -16.281  1.00  0.00     0.107 A 
HETATM   40  N   LIG     1     -23.660 -12.065 -16.609  1.00  0.00    -0.353 N 
HETATM   41  C   LIG     1     -23.920 -12.002 -17.948  1.00  0.00     0.109 A 
HETATM   42  H   LIG     1     -23.591 -11.277 -15.977  1.00  0.00     0.166 HD
HETATM   43  C   LIG     1     -23.914 -13.311 -18.369  1.00  0.00     0.135 A 
HETATM   44  N   LIG     1     -23.658 -14.166 -17.326  1.00  0.00    -0.246 NA
ENDBRANCH   4  39
TORSDOF 13
ENDMDL
MODEL 5
REMARK VINA RESULT:     -10.1      0.083      3.475
REMARK  13 active torsions:
REMARK  status: ('A' for Active; 'I' for Inactive)
REMARK    1  A    between atoms: O_1  and  C_12 
REMARK    2  A    between atoms: O_1  and  C_17 
REMARK    3  A    between atoms: N_5  and  C_18 
REMARK       I    between atoms: N_5  and  C_32 
REMARK    4  A    between atoms: C_6  and  C_11 
REMARK    5  A    between atoms: C_6  and  C_12 
REMARK    6  A    between atoms: C_9  and  C_14 
REMARK    7  A    between atoms: C_11  and  C_13 
REMARK    8  A    between atoms: C_13  and  C_15 
REMARK    9  A    between atoms: C_15  and  C_16 
REMARK   10  A    between atoms: C_16  and  C_18 
REMARK   11  A    between atoms: C_17  and  C_21 
REMARK   12  A    between atoms: C_17  and  C_22 
REMARK   13  A    between atoms: C_17  and  C_23 
ROOT
HETATM    1  C   LIG     1     -22.008 -15.198  -9.670  1.00  0.00    -0.018 C 
HETATM    2  C   LIG     1     -20.914 -14.528  -8.823  1.00  0.00     0.024 C 
HETATM    3  C   LIG     1     -23.242 -14.355  -9.318  1.00  0.00     0.012 C 
HETATM    4  C   LIG     1     -21.241 -13.023  -8.855  1.00  0.00     0.056 C 
HETATM    5  C   LIG     1     -22.728 -12.918  -9.243  1.00  0.00     0.013 C 
ENDROOT
BRANCH   1   6
HETATM    6  C   LIG     1     -22.203 -16.664  -9.279  1.00  0.00     0.012 C 
BRANCH   6   7
HETATM    7  C   LIG     1     -21.293 -17.061  -8.116  1.00  0.00     0.001 C 
BRANCH   7   8
HETATM    8  C   LIG     1     -20.824 -18.513  -8.250  1.00  0.00     0.006 C 
BRANCH   8   9
HETATM    9  C   LIG     1     -19.657 -18.698  -9.250  1.00  0.00     0.004 C 
HETATM   10  C   LIG     1     -18.792 -17.435  -9.346  1.00  0.00     0.012 C 
BRANCH   9  11
HETATM   11  C   LIG     1     -18.839 -19.969  -8.895  1.00  0.00     0.084 C 
HETATM   12  C   LIG     1     -19.014 -20.409  -7.443  1.00  0.00     0.032 C 
BRANCH  11  13
HETATM   13  N   LIG     1     -19.119 -21.076  -9.779  1.00  0.00    -0.357 N 
HETATM   14  C   LIG     1     -19.135 -20.958 -11.159  1.00  0.00     0.213 C 
HETATM   15  O   LIG     1     -18.920 -19.931 -11.797  1.00  0.00    -0.274 OA
HETATM   16  C   LIG     1     -19.429 -22.268 -11.840  1.00  0.00     0.117 C 
HETATM   17  H   LIG     1     -19.239 -21.998  -9.371  1.00  0.00     0.162 HD
ENDBRANCH  11  13
ENDBRANCH   9  11
ENDBRANCH   8   9
ENDBRANCH   7   8
ENDBRANCH   6   7
ENDBRANCH   1   6
BRANCH   1  18
HETATM   18  C   LIG     1     -21.680 -15.115 -11.170  1.00  0.00     0.179 C 
BRANCH  18  19
HETATM   19  O   LIG     1     -22.737 -15.722 -11.884  1.00  0.00    -0.365 OA
BRANCH  19  20
HETATM   20  C   LIG     1     -22.452 -15.816 -13.276  1.00  0.00     0.142 C 
BRANCH  20  21
HETATM   21  C   LIG     1     -23.073 -17.134 -13.791  1.00  0.00    -0.015 A 
HETATM   22  C   LIG     1     -24.343 -17.521 -13.361  1.00  0.00     0.011 A 
HETATM   23  C   LIG     1     -24.904 -18.710 -13.826  1.00  0.00     0.001 A 
HETATM   24  C   LIG     1     -24.196 -19.513 -14.720  1.00  0.00     0.000 A 
HETATM   25  C   LIG     1     -22.925 -19.126 -15.149  1.00  0.00     0.001 A 
HETATM   26  C   LIG     1     -22.365 -17.937 -14.684  1.00  0.00     0.011 A 
ENDBRANCH  20  21
BRANCH  20  27
HETATM   27  C   LIG     1     -23.082 -14.552 -13.901  1.00  0.00    -0.015 A 
HETATM   28  C   LIG     1     -23.123 -13.362 -13.176  1.00  0.00     0.011 A 
HETATM   29  C   LIG     1     -23.692 -12.220 -13.741  1.00  0.00     0.001 A 
HETATM   30  C   LIG     1     -24.218 -12.269 -15.031  1.00  0.00     0.000 A 
HETATM   31  C   LIG     1     -24.176 -13.459 -15.757  1.00  0.00     0.001 A 
HETATM   32  C   LIG     1     -23.608 -14.601 -15.192  1.00  0.00     0.011 A 
ENDBRANCH  20  27
BRANCH  20  33
HETATM   33  C   LIG     1     -20.910 -15.806 -13.369  1.00  0.00    -0.015 A 
HETATM   34  C   LIG     1     -20.256 -14.750 -14.004  1.00  0.00     0.011 A 
HETATM   35  C   LIG     1     -18.864 -14.740 -14.087  1.00  0.00     0.001 A 
HETATM   36  C   LIG     1     -18.124 -15.786 -13.535  1.00  0.00     0.000 A 
HETATM   37  C   LIG     1     -18.779 -16.843 -12.900  1.00  0.00     0.001 A 
HETATM   38  C   LIG     1     -20.171 -16.852 -12.817  1.00  0.00     0.011 A 
ENDBRANCH  20  33
ENDBRANCH  19  20
ENDBRANCH  18  19
ENDBRANCH   1  18
BRANCH   4  39
HETATM   39  C   LIG     1     -20.900 -12.321  -7.555  1.00  0.00     0.107 A 
HETATM   40  N   LIG     1     -21.876 -11.893  -6.700  1.00  0.00    -0.353 N 
HETATM   41  C   LIG     1     -21.257 -11.306  -5.632  1.00  0.00     0.109 A 
HETATM   42  H   LIG     1     -22.875 -11.991  -6.830  1.00  0.00     0.166 HD
HETATM   43  C   LIG     1     -19.914 -11.412  -5.904  1.00  0.00     0.135 A 
HETATM   44  N   LIG     1     -19.697 -12.044  -7.103  1.00  0.00    -0.246 NA
ENDBRANCH   4  39
TORSDOF 13
ENDMDL
MODEL 6
REMARK VINA RESULT:     -10.1      3.394      7.152
REMARK  13 active torsions:
REMARK  status: ('A' for Active; 'I' for Inactive)
REMARK    1  A    between atoms: O_1  and  C_12 
REMARK    2  A    between atoms: O_1  and  C_17 
REMARK    3  A    between atoms: N_5  and  C_18 
REMARK       I    between atoms: N_5  and  C_32 
REMARK    4  A    between atoms: C_6  and  C_11 
REMARK    5  A    between atoms: C_6  and  C_12 
REMARK    6  A    between atoms: C_9  and  C_14 
REMARK    7  A    between atoms: C_11  and  C_13 
REMARK    8  A    between atoms: C_13  and  C_15 
REMARK    9  A    between atoms: C_15  and  C_16 
REMARK   10  A    between atoms: C_16  and  C_18 
REMARK   11  A    between atoms: C_17  and  C_21 
REMARK   12  A    between atoms: C_17  and  C_22 
REMARK   13  A    between atoms: C_17  and  C_23 
ROOT
HETATM    1  C   LIG     1     -22.695 -15.649 -13.725  1.00  0.00    -0.018 C 
HETATM    2  C   LIG     1     -23.732 -14.983 -14.643  1.00  0.00     0.024 C 
HETATM    3  C   LIG     1     -21.375 -15.111 -14.295  1.00  0.00     0.012 C 
HETATM    4  C   LIG     1     -23.172 -13.578 -14.935  1.00  0.00     0.056 C 
HETATM    5  C   LIG     1     -21.662 -13.650 -14.642  1.00  0.00     0.013 C 
ENDROOT
BRANCH   1   6
HETATM    6  C   LIG     1     -22.761 -17.175 -13.814  1.00  0.00     0.012 C 
BRANCH   6   7
HETATM    7  C   LIG     1     -23.701 -17.631 -14.932  1.00  0.00     0.001 C 
BRANCH   7   8
HETATM    8  C   LIG     1     -23.228 -18.952 -15.548  1.00  0.00     0.006 C 
BRANCH   8   9
HETATM    9  C   LIG     1     -23.604 -20.197 -14.711  1.00  0.00     0.004 C 
HETATM   10  C   LIG     1     -25.111 -20.479 -14.766  1.00  0.00     0.012 C 
BRANCH   9  11
HETATM   11  C   LIG     1     -22.742 -21.415 -15.140  1.00  0.00     0.084 C 
HETATM   12  C   LIG     1     -21.338 -21.398 -14.538  1.00  0.00     0.032 C 
BRANCH  11  13
HETATM   13  N   LIG     1     -23.382 -22.678 -14.855  1.00  0.00    -0.357 N 
HETATM   14  C   LIG     1     -24.108 -23.388 -15.796  1.00  0.00     0.213 C 
HETATM   15  O   LIG     1     -24.299 -23.053 -16.962  1.00  0.00    -0.274 OA
HETATM   16  C   LIG     1     -24.647 -24.681 -15.243  1.00  0.00     0.117 C 
HETATM   17  H   LIG     1     -23.232 -23.096 -13.942  1.00  0.00     0.162 HD
ENDBRANCH  11  13
ENDBRANCH   9  11
ENDBRANCH   8   9
ENDBRANCH   7   8
ENDBRANCH   6   7
ENDBRANCH   1   6
BRANCH   1  18
HETATM   18  C   LIG     1     -22.890 -15.221 -12.262  1.00  0.00     0.179 C 
BRANCH  18  19
HETATM   19  O   LIG     1     -22.503 -16.297 -11.434  1.00  0.00    -0.365 OA
BRANCH  19  20
HETATM   20  C   LIG     1     -21.774 -15.855 -10.292  1.00  0.00     0.142 C 
BRANCH  20  21
HETATM   21  C   LIG     1     -20.408 -16.577 -10.304  1.00  0.00    -0.015 A 
HETATM   22  C   LIG     1     -19.689 -16.727  -9.118  1.00  0.00     0.011 A 
HETATM   23  C   LIG     1     -18.456 -17.379  -9.128  1.00  0.00     0.001 A 
HETATM   24  C   LIG     1     -17.942 -17.881 -10.323  1.00  0.00     0.000 A 
HETATM   25  C   LIG     1     -18.662 -17.730 -11.510  1.00  0.00     0.001 A 
HETATM   26  C   LIG     1     -19.894 -17.078 -11.499  1.00  0.00     0.011 A 
ENDBRANCH  20  21
BRANCH  20  27
HETATM   27  C   LIG     1     -21.664 -14.323 -10.455  1.00  0.00    -0.015 A 
HETATM   28  C   LIG     1     -20.576 -13.770 -11.132  1.00  0.00     0.011 A 
HETATM   29  C   LIG     1     -20.477 -12.387 -11.278  1.00  0.00     0.001 A 
HETATM   30  C   LIG     1     -21.465 -11.556 -10.750  1.00  0.00     0.000 A 
HETATM   31  C   LIG     1     -22.553 -12.110 -10.075  1.00  0.00     0.001 A 
HETATM   32  C   LIG     1     -22.653 -13.493  -9.927  1.00  0.00     0.011 A 
ENDBRANCH  20  27
BRANCH  20  33
HETATM   33  C   LIG     1     -22.650 -16.251  -9.083  1.00  0.00    -0.015 A 
HETATM   34  C   LIG     1     -23.941 -16.738  -9.286  1.00  0.00     0.011 A 
HETATM   35  C   LIG     1     -24.731 -17.096  -8.194  1.00  0.00     0.001 A 
HETATM   36  C   LIG     1     -24.232 -16.966  -6.898  1.00  0.00     0.000 A 
HETATM   37  C   LIG     1     -22.940 -16.479  -6.695  1.00  0.00     0.001 A 
HETATM   38  C   LIG     1     -22.149 -16.121  -7.787  1.00  0.00     0.011 A 
ENDBRANCH  20  33
ENDBRANCH  19  20
ENDBRANCH  18  19
ENDBRANCH   1  18
BRANCH   4  39
HETATM   39  C   LIG     1     -23.497 -13.096 -16.335  1.00  0.00     0.107 A 
HETATM   40  N   LIG     1     -23.759 -11.779 -16.593  1.00  0.00    -0.353 N 
HETATM   41  C   LIG     1     -24.014 -11.665 -17.930  1.00  0.00     0.109 A 
HETATM   42  H   LIG     1     -23.764 -11.025 -15.918  1.00  0.00     0.166 HD
HETATM   43  C   LIG     1     -23.891 -12.943 -18.421  1.00  0.00     0.135 A 
HETATM   44  N   LIG     1     -23.571 -13.830 -17.424  1.00  0.00    -0.246 NA
ENDBRANCH   4  39
TORSDOF 13
ENDMDL
MODEL 7
REMARK VINA RESULT:      -9.8      3.088      8.415
REMARK  13 active torsions:
REMARK  status: ('A' for Active; 'I' for Inactive)
REMARK    1  A    between atoms: O_1  and  C_12 
REMARK    2  A    between atoms: O_1  and  C_17 
REMARK    3  A    between atoms: N_5  and  C_18 
REMARK       I    between atoms: N_5  and  C_32 
REMARK    4  A    between atoms: C_6  and  C_11 
REMARK    5  A    between atoms: C_6  and  C_12 
REMARK    6  A    between atoms: C_9  and  C_14 
REMARK    7  A    between atoms: C_11  and  C_13 
REMARK    8  A    between atoms: C_13  and  C_15 
REMARK    9  A    between atoms: C_15  and  C_16 
REMARK   10  A    between atoms: C_16  and  C_18 
REMARK   11  A    between atoms: C_17  and  C_21 
REMARK   12  A    between atoms: C_17  and  C_22 
REMARK   13  A    between atoms: C_17  and  C_23 
ROOT
HETATM    1  C   LIG     1     -23.665 -17.295 -14.408  1.00  0.00    -0.018 C 
HETATM    2  C   LIG     1     -23.175 -18.540 -15.164  1.00  0.00     0.024 C 
HETATM    3  C   LIG     1     -25.100 -17.693 -14.038  1.00  0.00     0.012 C 
HETATM    4  C   LIG     1     -23.812 -19.736 -14.430  1.00  0.00     0.056 C 
HETATM    5  C   LIG     1     -25.013 -19.169 -13.651  1.00  0.00     0.013 C 
ENDROOT
BRANCH   1   6
HETATM    6  C   LIG     1     -23.641 -16.050 -15.298  1.00  0.00     0.012 C 
BRANCH   6   7
HETATM    7  C   LIG     1     -25.015 -15.774 -15.912  1.00  0.00     0.001 C 
BRANCH   7   8
HETATM    8  C   LIG     1     -25.096 -14.349 -16.470  1.00  0.00     0.006 C 
BRANCH   8   9
HETATM    9  C   LIG     1     -23.776 -13.858 -17.110  1.00  0.00     0.004 C 
HETATM   10  C   LIG     1     -23.813 -13.978 -18.639  1.00  0.00     0.012 C 
BRANCH   9  11
HETATM   11  C   LIG     1     -23.441 -12.423 -16.621  1.00  0.00     0.084 C 
HETATM   12  C   LIG     1     -24.020 -11.333 -17.518  1.00  0.00     0.032 C 
BRANCH  11  13
HETATM   13  N   LIG     1     -23.840 -12.196 -15.252  1.00  0.00    -0.357 N 
HETATM   14  C   LIG     1     -23.074 -12.582 -14.165  1.00  0.00     0.213 C 
HETATM   15  O   LIG     1     -21.987 -13.152 -14.215  1.00  0.00    -0.274 OA
HETATM   16  C   LIG     1     -23.711 -12.203 -12.855  1.00  0.00     0.117 C 
HETATM   17  H   LIG     1     -24.688 -11.663 -15.082  1.00  0.00     0.162 HD
ENDBRANCH  11  13
ENDBRANCH   9  11
ENDBRANCH   8   9
ENDBRANCH   7   8
ENDBRANCH   6   7
ENDBRANCH   1   6
BRANCH   1  18
HETATM   18  C   LIG     1     -22.814 -17.033 -13.155  1.00  0.00     0.179 C 
BRANCH  18  19
HETATM   19  O   LIG     1     -21.547 -16.570 -13.572  1.00  0.00    -0.365 OA
BRANCH  19  20
HETATM   20  C   LIG     1     -20.597 -16.590 -12.511  1.00  0.00     0.142 C 
BRANCH  20  21
HETATM   21  C   LIG     1     -21.329 -16.150 -11.223  1.00  0.00    -0.015 A 
HETATM   22  C   LIG     1     -21.133 -16.853 -10.035  1.00  0.00     0.011 A 
HETATM   23  C   LIG     1     -21.793 -16.455  -8.872  1.00  0.00     0.001 A 
HETATM   24  C   LIG     1     -22.649 -15.355  -8.898  1.00  0.00     0.000 A 
HETATM   25  C   LIG     1     -22.847 -14.652 -10.088  1.00  0.00     0.001 A 
HETATM   26  C   LIG     1     -22.187 -15.050 -11.249  1.00  0.00     0.011 A 
ENDBRANCH  20  21
BRANCH  20  27
HETATM   27  C   LIG     1     -20.082 -18.045 -12.460  1.00  0.00    -0.015 A 
HETATM   28  C   LIG     1     -19.517 -18.544 -11.287  1.00  0.00     0.011 A 
HETATM   29  C   LIG     1     -19.051 -19.859 -11.242  1.00  0.00     0.001 A 
HETATM   30  C   LIG     1     -19.151 -20.673 -12.369  1.00  0.00     0.000 A 
HETATM   31  C   LIG     1     -19.717 -20.174 -13.542  1.00  0.00     0.001 A 
HETATM   32  C   LIG     1     -20.182 -18.860 -13.588  1.00  0.00     0.011 A 
ENDBRANCH  20  27
BRANCH  20  33
HETATM   33  C   LIG     1     -19.496 -15.596 -12.943  1.00  0.00    -0.015 A 
HETATM   34  C   LIG     1     -19.510 -14.287 -12.462  1.00  0.00     0.011 A 
HETATM   35  C   LIG     1     -18.516 -13.390 -12.851  1.00  0.00     0.001 A 
HETATM   36  C   LIG     1     -17.507 -13.802 -13.723  1.00  0.00     0.000 A 
HETATM   37  C   LIG     1     -17.493 -15.112 -14.204  1.00  0.00     0.001 A 
HETATM   38  C   LIG     1     -18.487 -16.008 -13.814  1.00  0.00     0.011 A 
ENDBRANCH  20  33
ENDBRANCH  19  20
ENDBRANCH  18  19
ENDBRANCH   1  18
BRANCH   4  39
HETATM   39  C   LIG     1     -24.175 -20.872 -15.366  1.00  0.00     0.107 A 
HETATM   40  N   LIG     1     -24.877 -20.649 -16.518  1.00  0.00    -0.353 N 
HETATM   41  C   LIG     1     -25.046 -21.856 -17.136  1.00  0.00     0.109 A 
HETATM   42  H   LIG     1     -25.213 -19.755 -16.853  1.00  0.00     0.166 HD
HETATM   43  C   LIG     1     -24.425 -22.763 -16.310  1.00  0.00     0.135 A 
HETATM   44  N   LIG     1     -23.885 -22.145 -15.210  1.00  0.00    -0.246 NA
ENDBRANCH   4  39
TORSDOF 13
ENDMDL
MODEL 8
REMARK VINA RESULT:      -9.7      3.111      8.545
REMARK  13 active torsions:
REMARK  status: ('A' for Active; 'I' for Inactive)
REMARK    1  A    between atoms: O_1  and  C_12 
REMARK    2  A    between atoms: O_1  and  C_17 
REMARK    3  A    between atoms: N_5  and  C_18 
REMARK       I    between atoms: N_5  and  C_32 
REMARK    4  A    between atoms: C_6  and  C_11 
REMARK    5  A    between atoms: C_6  and  C_12 
REMARK    6  A    between atoms: C_9  and  C_14 
REMARK    7  A    between atoms: C_11  and  C_13 
REMARK    8  A    between atoms: C_13  and  C_15 
REMARK    9  A    between atoms: C_15  and  C_16 
REMARK   10  A    between atoms: C_16  and  C_18 
REMARK   11  A    between atoms: C_17  and  C_21 
REMARK   12  A    between atoms: C_17  and  C_22 
REMARK   13  A    between atoms: C_17  and  C_23 
ROOT
HETATM    1  C   LIG     1     -23.710 -17.239 -14.443  1.00  0.00    -0.018 C 
HETATM    2  C   LIG     1     -23.209 -18.483 -15.194  1.00  0.00     0.024 C 
HETATM    3  C   LIG     1     -25.135 -17.654 -14.054  1.00  0.00     0.012 C 
HETATM    4  C   LIG     1     -23.821 -19.682 -14.444  1.00  0.00     0.056 C 
HETATM    5  C   LIG     1     -25.021 -19.126 -13.656  1.00  0.00     0.013 C 
ENDROOT
BRANCH   1   6
HETATM    6  C   LIG     1     -23.714 -16.002 -15.344  1.00  0.00     0.012 C 
BRANCH   6   7
HETATM    7  C   LIG     1     -25.125 -15.669 -15.832  1.00  0.00     0.001 C 
BRANCH   7   8
HETATM    8  C   LIG     1     -25.160 -14.310 -16.540  1.00  0.00     0.006 C 
BRANCH   8   9
HETATM    9  C   LIG     1     -23.793 -13.878 -17.122  1.00  0.00     0.004 C 
HETATM   10  C   LIG     1     -23.749 -14.053 -18.645  1.00  0.00     0.012 C 
BRANCH   9  11
HETATM   11  C   LIG     1     -23.444 -12.437 -16.664  1.00  0.00     0.084 C 
HETATM   12  C   LIG     1     -24.071 -11.359 -17.546  1.00  0.00     0.032 C 
BRANCH  11  13
HETATM   13  N   LIG     1     -23.781 -12.196 -15.281  1.00  0.00    -0.357 N 
HETATM   14  C   LIG     1     -22.988 -12.612 -14.224  1.00  0.00     0.213 C 
HETATM   15  O   LIG     1     -21.927 -13.222 -14.316  1.00  0.00    -0.274 OA
HETATM   16  C   LIG     1     -23.559 -12.210 -12.890  1.00  0.00     0.117 C 
HETATM   17  H   LIG     1     -24.601 -11.632 -15.078  1.00  0.00     0.162 HD
ENDBRANCH  11  13
ENDBRANCH   9  11
ENDBRANCH   8   9
ENDBRANCH   7   8
ENDBRANCH   6   7
ENDBRANCH   1   6
BRANCH   1  18
HETATM   18  C   LIG     1     -22.849 -16.954 -13.201  1.00  0.00     0.179 C 
BRANCH  18  19
HETATM   19  O   LIG     1     -21.580 -16.514 -13.637  1.00  0.00    -0.365 OA
BRANCH  19  20
HETATM   20  C   LIG     1     -20.602 -16.607 -12.606  1.00  0.00     0.142 C 
BRANCH  20  21
HETATM   21  C   LIG     1     -20.111 -18.071 -12.562  1.00  0.00    -0.015 A 
HETATM   22  C   LIG     1     -20.276 -18.896 -13.675  1.00  0.00     0.011 A 
HETATM   23  C   LIG     1     -19.831 -20.218 -13.636  1.00  0.00     0.001 A 
HETATM   24  C   LIG     1     -19.223 -20.715 -12.484  1.00  0.00     0.000 A 
HETATM   25  C   LIG     1     -19.058 -19.890 -11.370  1.00  0.00     0.001 A 
HETATM   26  C   LIG     1     -19.502 -18.569 -11.410  1.00  0.00     0.011 A 
ENDBRANCH  20  21
BRANCH  20  27
HETATM   27  C   LIG     1     -19.502 -15.599 -13.004  1.00  0.00    -0.015 A 
HETATM   28  C   LIG     1     -19.545 -14.292 -12.519  1.00  0.00     0.011 A 
HETATM   29  C   LIG     1     -18.551 -13.382 -12.879  1.00  0.00     0.001 A 
HETATM   30  C   LIG     1     -17.513 -13.779 -13.721  1.00  0.00     0.000 A 
HETATM   31  C   LIG     1     -17.470 -15.086 -14.205  1.00  0.00     0.001 A 
HETATM   32  C   LIG     1     -18.464 -15.997 -13.847  1.00  0.00     0.011 A 
ENDBRANCH  20  27
BRANCH  20  33
HETATM   33  C   LIG     1     -21.341 -16.185 -11.317  1.00  0.00    -0.015 A 
HETATM   34  C   LIG     1     -21.223 -16.956 -10.161  1.00  0.00     0.011 A 
HETATM   35  C   LIG     1     -21.889 -16.574  -8.997  1.00  0.00     0.001 A 
HETATM   36  C   LIG     1     -22.675 -15.421  -8.988  1.00  0.00     0.000 A 
HETATM   37  C   LIG     1     -22.792 -14.650 -10.145  1.00  0.00     0.001 A 
HETATM   38  C   LIG     1     -22.126 -15.031 -11.309  1.00  0.00     0.011 A 
ENDBRANCH  20  33
ENDBRANCH  19  20
ENDBRANCH  18  19
ENDBRANCH   1  18
BRANCH   4  39
HETATM   39  C   LIG     1     -24.177 -20.831 -15.366  1.00  0.00     0.107 A 
HETATM   40  N   LIG     1     -24.914 -20.631 -16.500  1.00  0.00    -0.353 N 
HETATM   41  C   LIG     1     -25.065 -21.844 -17.109  1.00  0.00     0.109 A 
HETATM   42  H   LIG     1     -25.281 -19.748 -16.830  1.00  0.00     0.166 HD
HETATM   43  C   LIG     1     -24.401 -22.731 -16.296  1.00  0.00     0.135 A 
HETATM   44  N   LIG     1     -23.851 -22.095 -15.212  1.00  0.00    -0.246 NA
ENDBRANCH   4  39
TORSDOF 13
ENDMDL
MODEL 9
REMARK VINA RESULT:      -9.7      3.125      8.573
REMARK  13 active torsions:
REMARK  status: ('A' for Active; 'I' for Inactive)
REMARK    1  A    between atoms: O_1  and  C_12 
REMARK    2  A    between atoms: O_1  and  C_17 
REMARK    3  A    between atoms: N_5  and  C_18 
REMARK       I    between atoms: N_5  and  C_32 
REMARK    4  A    between atoms: C_6  and  C_11 
REMARK    5  A    between atoms: C_6  and  C_12 
REMARK    6  A    between atoms: C_9  and  C_14 
REMARK    7  A    between atoms: C_11  and  C_13 
REMARK    8  A    between atoms: C_13  and  C_15 
REMARK    9  A    between atoms: C_15  and  C_16 
REMARK   10  A    between atoms: C_16  and  C_18 
REMARK   11  A    between atoms: C_17  and  C_21 
REMARK   12  A    between atoms: C_17  and  C_22 
REMARK   13  A    between atoms: C_17  and  C_23 
ROOT
HETATM    1  C   LIG     1     -23.703 -17.268 -14.416  1.00  0.00    -0.018 C 
HETATM    2  C   LIG     1     -23.217 -18.499 -15.196  1.00  0.00     0.024 C 
HETATM    3  C   LIG     1     -25.123 -17.687 -14.014  1.00  0.00     0.012 C 
HETATM    4  C   LIG     1     -23.820 -19.710 -14.459  1.00  0.00     0.056 C 
HETATM    5  C   LIG     1     -25.008 -19.166 -13.644  1.00  0.00     0.013 C 
ENDROOT
BRANCH   1   6
HETATM    6  C   LIG     1     -23.718 -16.015 -15.295  1.00  0.00     0.012 C 
BRANCH   6   7
HETATM    7  C   LIG     1     -25.133 -15.677 -15.765  1.00  0.00     0.001 C 
BRANCH   7   8
HETATM    8  C   LIG     1     -25.166 -14.335 -16.504  1.00  0.00     0.006 C 
BRANCH   8   9
HETATM    9  C   LIG     1     -23.796 -13.916 -17.090  1.00  0.00     0.004 C 
HETATM   10  C   LIG     1     -23.760 -14.087 -18.614  1.00  0.00     0.012 C 
BRANCH   9  11
HETATM   11  C   LIG     1     -23.431 -12.479 -16.630  1.00  0.00     0.084 C 
HETATM   12  C   LIG     1     -24.018 -11.394 -17.530  1.00  0.00     0.032 C 
BRANCH  11  13
HETATM   13  N   LIG     1     -23.793 -12.226 -15.256  1.00  0.00    -0.357 N 
HETATM   14  C   LIG     1     -23.010 -12.614 -14.182  1.00  0.00     0.213 C 
HETATM   15  O   LIG     1     -21.937 -13.208 -14.249  1.00  0.00    -0.274 OA
HETATM   16  C   LIG     1     -23.609 -12.205 -12.862  1.00  0.00     0.117 C 
HETATM   17  H   LIG     1     -24.625 -11.673 -15.073  1.00  0.00     0.162 HD
ENDBRANCH  11  13
ENDBRANCH   9  11
ENDBRANCH   8   9
ENDBRANCH   7   8
ENDBRANCH   6   7
ENDBRANCH   1   6
BRANCH   1  18
HETATM   18  C   LIG     1     -22.824 -17.008 -13.182  1.00  0.00     0.179 C 
BRANCH  18  19
HETATM   19  O   LIG     1     -21.578 -16.512 -13.627  1.00  0.00    -0.365 OA
BRANCH  19  20
HETATM   20  C   LIG     1     -20.592 -16.555 -12.600  1.00  0.00     0.142 C 
BRANCH  20  21
HETATM   21  C   LIG     1     -19.475 -15.559 -12.986  1.00  0.00    -0.015 A 
HETATM   22  C   LIG     1     -18.436 -15.968 -13.822  1.00  0.00     0.011 A 
HETATM   23  C   LIG     1     -17.427 -15.069 -14.171  1.00  0.00     0.001 A 
HETATM   24  C   LIG     1     -17.458 -13.763 -13.684  1.00  0.00     0.000 A 
HETATM   25  C   LIG     1     -18.497 -13.355 -12.846  1.00  0.00     0.001 A 
HETATM   26  C   LIG     1     -19.505 -14.253 -12.498  1.00  0.00     0.011 A 
ENDBRANCH  20  21
BRANCH  20  27
HETATM   27  C   LIG     1     -21.342 -16.168 -11.307  1.00  0.00    -0.015 A 
HETATM   28  C   LIG     1     -22.255 -15.114 -11.318  1.00  0.00     0.011 A 
HETATM   29  C   LIG     1     -22.933 -14.765 -10.149  1.00  0.00     0.001 A 
HETATM   30  C   LIG     1     -22.698 -15.472  -8.970  1.00  0.00     0.000 A 
HETATM   31  C   LIG     1     -21.785 -16.526  -8.959  1.00  0.00     0.001 A 
HETATM   32  C   LIG     1     -21.107 -16.875 -10.127  1.00  0.00     0.011 A 
ENDBRANCH  20  27
BRANCH  20  33
HETATM   33  C   LIG     1     -20.105 -18.021 -12.576  1.00  0.00    -0.015 A 
HETATM   34  C   LIG     1     -20.268 -18.829 -13.701  1.00  0.00     0.011 A 
HETATM   35  C   LIG     1     -19.828 -20.151 -13.679  1.00  0.00     0.001 A 
HETATM   36  C   LIG     1     -19.226 -20.668 -12.532  1.00  0.00     0.000 A 
HETATM   37  C   LIG     1     -19.063 -19.860 -11.406  1.00  0.00     0.001 A 
HETATM   38  C   LIG     1     -19.503 -18.537 -11.428  1.00  0.00     0.011 A 
ENDBRANCH  20  33
ENDBRANCH  19  20
ENDBRANCH  18  19
ENDBRANCH   1  18
BRANCH   4  39
HETATM   39  C   LIG     1     -24.193 -20.842 -15.396  1.00  0.00     0.107 A 
HETATM   40  N   LIG     1     -24.931 -20.618 -16.525  1.00  0.00    -0.353 N 
HETATM   41  C   LIG     1     -25.098 -21.820 -17.151  1.00  0.00     0.109 A 
HETATM   42  H   LIG     1     -25.289 -19.726 -16.841  1.00  0.00     0.166 HD
HETATM   43  C   LIG     1     -24.441 -22.726 -16.353  1.00  0.00     0.135 A 
HETATM   44  N   LIG     1     -23.880 -22.111 -15.262  1.00  0.00    -0.246 NA
ENDBRANCH   4  39
TORSDOF 13
ENDMDL
