MODEL 1
REMARK VINA RESULT:      -9.7      0.000      0.000
REMARK  1 active torsions:
REMARK  status: ('A' for Active; 'I' for Inactive)
REMARK    1  A    between atoms: C_10  and  C_15 
ROOT
HETATM    1 CL   LIG     1     -18.393 -17.708 -10.420  1.00  0.00    -0.084 Cl
HETATM    2  N   LIG     1     -22.355 -13.743 -12.373  1.00  0.00    -0.300 N 
HETATM    3  N   LIG     1     -22.745 -13.271  -9.379  1.00  0.00    -0.282 NA
HETATM    4  N   LIG     1     -23.671 -12.593 -13.772  1.00  0.00    -0.245 NA
HETATM    5  C   LIG     1     -21.479 -14.738 -11.877  1.00  0.00     0.053 A 
HETATM    6  C   LIG     1     -22.774 -12.617 -11.694  1.00  0.00     0.056 A 
HETATM    7  C   LIG     1     -21.370 -15.013 -10.499  1.00  0.00     0.022 A 
HETATM    8  C   LIG     1     -22.296 -12.276 -10.334  1.00  0.00     0.208 C 
HETATM    9  C   LIG     1     -22.322 -14.487  -9.465  1.00  0.00     0.077 C 
HETATM   10  C   LIG     1     -22.899 -13.648 -13.635  1.00  0.00     0.107 A 
HETATM   11  C   LIG     1     -23.598 -11.948 -12.569  1.00  0.00     0.145 A 
HETATM   12  C   LIG     1     -20.676 -15.439 -12.791  1.00  0.00     0.032 A 
HETATM   13  C   LIG     1     -20.393 -15.925 -10.062  1.00  0.00     0.040 A 
HETATM   14  C   LIG     1     -22.813 -14.687 -14.687  1.00  0.00     0.091 C 
HETATM   15  C   LIG     1     -19.730 -16.360 -12.339  1.00  0.00     0.026 A 
HETATM   16  C   LIG     1     -19.578 -16.591 -10.977  1.00  0.00     0.035 A 
ENDROOT
BRANCH   9  17
HETATM   17  C   LIG     1     -22.862 -15.443  -8.454  1.00  0.00     0.032 A 
HETATM   18  C   LIG     1     -22.159 -15.670  -7.278  1.00  0.00     0.129 A 
HETATM   19  F   LIG     1     -20.999 -15.043  -7.036  1.00  0.00    -0.205 F 
HETATM   20  C   LIG     1     -22.667 -16.563  -6.335  1.00  0.00     0.043 A 
HETATM   21  C   LIG     1     -23.873 -17.221  -6.574  1.00  0.00     0.003 A 
HETATM   22  C   LIG     1     -24.571 -16.985  -7.759  1.00  0.00     0.001 A 
HETATM   23  C   LIG     1     -24.064 -16.093  -8.702  1.00  0.00     0.017 A 
ENDBRANCH   9  17
TORSDOF 1
ENDMDL
