MODEL 1
REMARK VINA RESULT:      -6.4      0.000      0.000
REMARK  1 active torsions:
REMARK  status: ('A' for Active; 'I' for Inactive)
REMARK    1  A    between atoms: O_1  and  C_10 
ROOT
HETATM    1  O   LIG     1     -22.925 -22.069 -15.002  1.00  0.00    -0.293 OA
HETATM    2  C   LIG     1     -22.673 -14.523 -16.162  1.00  0.00     0.001 C 
HETATM    3  C   LIG     1     -24.017 -13.770 -16.190  1.00  0.00    -0.014 C 
HETATM    4  C   LIG     1     -22.676 -15.701 -15.182  1.00  0.00    -0.004 C 
HETATM    5  C   LIG     1     -23.793 -16.705 -15.608  1.00  0.00     0.002 C 
HETATM    6  C   LIG     1     -23.851 -17.982 -14.685  1.00  0.00    -0.016 C 
HETATM    7  C   LIG     1     -25.096 -14.743 -16.680  1.00  0.00     0.012 C 
HETATM    8  C   LIG     1     -25.165 -16.001 -15.796  1.00  0.00     0.007 C 
HETATM    9  C   LIG     1     -23.657 -12.651 -17.187  1.00  0.00     0.126 C 
HETATM   10  C   LIG     1     -21.644 -13.410 -15.985  1.00  0.00     0.008 C 
HETATM   11  C   LIG     1     -21.315 -16.407 -15.154  1.00  0.00     0.010 C 
HETATM   12  C   LIG     1     -22.233 -12.226 -16.774  1.00  0.00     0.033 C 
HETATM   13  C   LIG     1     -22.442 -18.570 -14.533  1.00  0.00    -0.068 C 
HETATM   14  C   LIG     1     -21.333 -17.598 -14.204  1.00  0.00     0.035 C 
HETATM   15  C   LIG     1     -24.445 -13.161 -14.831  1.00  0.00     0.018 C 
HETATM   16  C   LIG     1     -24.793 -19.026 -15.352  1.00  0.00     0.022 C 
HETATM   17  C   LIG     1     -24.389 -17.652 -13.274  1.00  0.00     0.020 C 
HETATM   18  C   LIG     1     -24.655 -20.427 -14.779  1.00  0.00     0.084 C 
HETATM   19  C   LIG     1     -22.156 -19.877 -14.652  1.00  0.00     0.053 C 
HETATM   20  C   LIG     1     -23.222 -20.885 -14.853  1.00  0.00     0.149 C 
ENDROOT
BRANCH   9  21
HETATM   21  O   LIG     1     -24.560 -11.564 -17.148  1.00  0.00    -0.395 OA
HETATM   22  H   LIG     1     -24.222 -10.852 -17.716  1.00  0.00     0.210 HD
ENDBRANCH   9  21
TORSDOF 1
ENDMDL
