MODEL 1
REMARK VINA RESULT:      -9.1      0.000      0.000
REMARK  1 active torsions:
REMARK  status: ('A' for Active; 'I' for Inactive)
REMARK    1  A    between atoms: O_1  and  C_10 
ROOT
HETATM    1  O   LIG     1     -19.132 -21.864 -10.542  1.00  0.00    -0.293 OA
HETATM    2  C   LIG     1     -21.421 -15.072 -13.187  1.00  0.00     0.001 C 
HETATM    3  C   LIG     1     -21.444 -13.900 -12.188  1.00  0.00    -0.014 C 
HETATM    4  C   LIG     1     -20.280 -16.058 -12.914  1.00  0.00    -0.004 C 
HETATM    5  C   LIG     1     -20.453 -16.641 -11.476  1.00  0.00     0.002 C 
HETATM    6  C   LIG     1     -19.348 -17.706 -11.112  1.00  0.00    -0.016 C 
HETATM    7  C   LIG     1     -21.688 -14.474 -10.787  1.00  0.00     0.012 C 
HETATM    8  C   LIG     1     -20.624 -15.521 -10.413  1.00  0.00     0.007 C 
HETATM    9  C   LIG     1     -22.624 -13.098 -12.770  1.00  0.00     0.126 C 
HETATM   10  C   LIG     1     -21.501 -14.384 -14.547  1.00  0.00     0.008 C 
HETATM   11  C   LIG     1     -20.264 -17.194 -13.945  1.00  0.00     0.010 C 
HETATM   12  C   LIG     1     -22.404 -13.163 -14.295  1.00  0.00     0.033 C 
HETATM   13  C   LIG     1     -19.233 -18.735 -12.244  1.00  0.00    -0.068 C 
HETATM   14  C   LIG     1     -19.150 -18.189 -13.650  1.00  0.00     0.035 C 
HETATM   15  C   LIG     1     -20.158 -13.034 -12.177  1.00  0.00     0.018 C 
HETATM   16  C   LIG     1     -19.768 -18.414  -9.791  1.00  0.00     0.022 C 
HETATM   17  C   LIG     1     -17.961 -17.054 -10.910  1.00  0.00     0.020 C 
HETATM   18  C   LIG     1     -19.007 -19.702  -9.520  1.00  0.00     0.084 C 
HETATM   19  C   LIG     1     -19.180 -20.063 -12.050  1.00  0.00     0.053 C 
HETATM   20  C   LIG     1     -19.135 -20.643 -10.688  1.00  0.00     0.149 C 
ENDROOT
BRANCH   9  21
HETATM   21  O   LIG     1     -22.669 -11.763 -12.304  1.00  0.00    -0.395 OA
HETATM   22  H   LIG     1     -23.488 -11.634 -11.797  1.00  0.00     0.210 HD
ENDBRANCH   9  21
TORSDOF 1
ENDMDL
