MODEL 1
REMARK VINA RESULT:      -9.8      0.000      0.000
REMARK  6 active torsions:
REMARK  status: ('A' for Active; 'I' for Inactive)
REMARK    1  A    between atoms: S_2  and  N_9 
REMARK    2  A    between atoms: S_2  and  C_15 
REMARK    3  A    between atoms: O_6  and  C_19 
REMARK    4  A    between atoms: N_10  and  C_18 
REMARK       I    between atoms: N_10  and  C_21 
REMARK    5  A    between atoms: C_21  and  C_22 
REMARK    6  A    between atoms: C_23  and  C_26 
ROOT
HETATM    1  C   LIG     1     -22.564 -13.561 -11.965  1.00  0.00     0.077 A 
HETATM    2  C   LIG     1     -22.413 -14.896 -12.305  1.00  0.00     0.057 A 
HETATM    3  C   LIG     1     -22.934 -12.614 -12.907  1.00  0.00     0.028 A 
HETATM    4  C   LIG     1     -22.638 -15.295 -13.623  1.00  0.00     0.070 A 
HETATM    5  C   LIG     1     -23.011 -14.354 -14.582  1.00  0.00     0.095 A 
HETATM    6  C   LIG     1     -23.159 -13.013 -14.225  1.00  0.00     0.040 A 
ENDROOT
BRANCH   4   7
HETATM    7  N   LIG     1     -22.487 -16.640 -13.966  1.00  0.00    -0.319 N 
HETATM    8  C   LIG     1     -23.488 -17.588 -14.254  1.00  0.00     0.280 C 
HETATM    9  O   LIG     1     -24.692 -17.341 -14.238  1.00  0.00    -0.265 OA
HETATM   10  H   LIG     1     -21.525 -16.968 -14.011  1.00  0.00     0.169 HD
BRANCH   8  11
HETATM   11  C   LIG     1     -22.997 -18.947 -14.543  1.00  0.00     0.144 A 
HETATM   12  O   LIG     1     -23.920 -19.833 -14.931  1.00  0.00    -0.304 OA
HETATM   13  C   LIG     1     -23.229 -20.985 -15.132  1.00  0.00     0.088 A 
HETATM   14  C   LIG     1     -21.892 -20.800 -14.868  1.00  0.00     0.041 A 
HETATM   15  C   LIG     1     -21.753 -19.446 -14.479  1.00  0.00     0.046 A 
BRANCH  13  16
HETATM   16  C   LIG     1     -24.015 -22.106 -15.562  1.00  0.00     0.019 A 
HETATM   17  C   LIG     1     -25.023 -21.986 -16.528  1.00  0.00     0.047 A 
HETATM   18 CL   LIG     1     -25.391 -20.467 -17.270  1.00  0.00    -0.083 Cl
HETATM   19  C   LIG     1     -25.764 -23.102 -16.918  1.00  0.00     0.025 A 
HETATM   20  C   LIG     1     -25.503 -24.347 -16.345  1.00  0.00     0.002 A 
HETATM   21  C   LIG     1     -24.501 -24.476 -15.383  1.00  0.00     0.001 A 
HETATM   22  C   LIG     1     -23.760 -23.360 -14.993  1.00  0.00     0.016 A 
ENDBRANCH  13  16
ENDBRANCH   8  11
ENDBRANCH   4   7
BRANCH   5  23
HETATM   23  O   LIG     1     -23.236 -14.723 -15.875  1.00  0.00    -0.354 OA
HETATM   24  C   LIG     1     -24.472 -14.318 -16.459  1.00  0.00     0.210 C 
ENDBRANCH   5  23
BRANCH   1  25
HETATM   25  S   LIG     1     -22.279 -13.056 -10.298  1.00  0.00     0.243 S 
HETATM   26  O   LIG     1     -21.018 -12.345 -10.261  1.00  0.00    -0.206 OA
HETATM   27  O   LIG     1     -23.494 -12.445  -9.804  1.00  0.00    -0.206 OA
BRANCH  25  28
HETATM   28  N   LIG     1     -22.081 -14.584  -9.552  1.00  0.00    -0.202 NA
HETATM   29  C   LIG     1     -20.789 -14.785  -8.834  1.00  0.00     0.134 C 
HETATM   30  C   LIG     1     -20.667 -16.254  -8.451  1.00  0.00     0.183 C 
HETATM   31  O   LIG     1     -21.774 -16.650  -7.639  1.00  0.00    -0.389 OA
HETATM   32  C   LIG     1     -23.007 -16.505  -8.346  1.00  0.00     0.183 C 
HETATM   33  C   LIG     1     -23.233 -15.048  -8.723  1.00  0.00     0.134 C 
ENDBRANCH  25  28
ENDBRANCH   1  25
TORSDOF 6
ENDMDL
MODEL 2
REMARK VINA RESULT:      -9.6      2.454      3.043
REMARK  6 active torsions:
REMARK  status: ('A' for Active; 'I' for Inactive)
REMARK    1  A    between atoms: S_2  and  N_9 
REMARK    2  A    between atoms: S_2  and  C_15 
REMARK    3  A    between atoms: O_6  and  C_19 
REMARK    4  A    between atoms: N_10  and  C_18 
REMARK       I    between atoms: N_10  and  C_21 
REMARK    5  A    between atoms: C_21  and  C_22 
REMARK    6  A    between atoms: C_23  and  C_26 
ROOT
HETATM    1  C   LIG     1     -21.212 -13.908 -10.632  1.00  0.00     0.077 A 
HETATM    2  C   LIG     1     -21.252 -15.208 -11.108  1.00  0.00     0.057 A 
HETATM    3  C   LIG     1     -20.494 -12.921 -11.288  1.00  0.00     0.028 A 
HETATM    4  C   LIG     1     -20.556 -15.531 -12.273  1.00  0.00     0.070 A 
HETATM    5  C   LIG     1     -19.829 -14.549 -12.945  1.00  0.00     0.095 A 
HETATM    6  C   LIG     1     -19.797 -13.243 -12.453  1.00  0.00     0.040 A 
ENDROOT
BRANCH   4   7
HETATM    7  N   LIG     1     -20.596 -16.841 -12.753  1.00  0.00    -0.319 N 
HETATM    8  C   LIG     1     -19.615 -17.847 -12.638  1.00  0.00     0.280 C 
HETATM    9  O   LIG     1     -18.537 -17.691 -12.068  1.00  0.00    -0.265 OA
HETATM   10  H   LIG     1     -21.447 -17.093 -13.251  1.00  0.00     0.169 HD
BRANCH   8  11
HETATM   11  C   LIG     1     -19.948 -19.122 -13.296  1.00  0.00     0.144 A 
HETATM   12  O   LIG     1     -21.195 -19.230 -13.766  1.00  0.00    -0.304 OA
HETATM   13  C   LIG     1     -21.249 -20.472 -14.315  1.00  0.00     0.088 A 
HETATM   14  C   LIG     1     -20.041 -21.115 -14.180  1.00  0.00     0.041 A 
HETATM   15  C   LIG     1     -19.189 -20.209 -13.504  1.00  0.00     0.046 A 
BRANCH  13  16
HETATM   16  C   LIG     1     -22.511 -20.832 -14.898  1.00  0.00     0.019 A 
HETATM   17  C   LIG     1     -23.430 -19.872 -15.343  1.00  0.00     0.047 A 
HETATM   18 CL   LIG     1     -23.103 -18.178 -15.216  1.00  0.00    -0.083 Cl
HETATM   19  C   LIG     1     -24.645 -20.265 -15.903  1.00  0.00     0.025 A 
HETATM   20  C   LIG     1     -24.951 -21.620 -16.023  1.00  0.00     0.002 A 
HETATM   21  C   LIG     1     -24.042 -22.582 -15.584  1.00  0.00     0.001 A 
HETATM   22  C   LIG     1     -22.827 -22.190 -15.024  1.00  0.00     0.016 A 
ENDBRANCH  13  16
ENDBRANCH   8  11
ENDBRANCH   4   7
BRANCH   5  23
HETATM   23  O   LIG     1     -19.141 -14.843 -14.085  1.00  0.00    -0.354 OA
HETATM   24  C   LIG     1     -17.718 -14.845 -14.000  1.00  0.00     0.210 C 
ENDBRANCH   5  23
BRANCH   1  25
HETATM   25  S   LIG     1     -22.093 -13.499  -9.158  1.00  0.00     0.243 S 
HETATM   26  O   LIG     1     -21.159 -12.876  -8.243  1.00  0.00    -0.206 OA
HETATM   27  O   LIG     1     -23.318 -12.831  -9.542  1.00  0.00    -0.206 OA
BRANCH  25  28
HETATM   28  N   LIG     1     -22.470 -15.069  -8.589  1.00  0.00    -0.202 NA
HETATM   29  C   LIG     1     -21.865 -15.440  -7.277  1.00  0.00     0.134 C 
HETATM   30  C   LIG     1     -22.085 -16.927  -7.041  1.00  0.00     0.183 C 
HETATM   31  O   LIG     1     -23.481 -17.233  -7.068  1.00  0.00    -0.389 OA
HETATM   32  C   LIG     1     -24.049 -16.926  -8.342  1.00  0.00     0.183 C 
HETATM   33  C   LIG     1     -23.916 -15.439  -8.636  1.00  0.00     0.134 C 
ENDBRANCH  25  28
ENDBRANCH   1  25
TORSDOF 6
ENDMDL
MODEL 3
REMARK VINA RESULT:      -9.5      1.677      2.069
REMARK  6 active torsions:
REMARK  status: ('A' for Active; 'I' for Inactive)
REMARK    1  A    between atoms: S_2  and  N_9 
REMARK    2  A    between atoms: S_2  and  C_15 
REMARK    3  A    between atoms: O_6  and  C_19 
REMARK    4  A    between atoms: N_10  and  C_18 
REMARK       I    between atoms: N_10  and  C_21 
REMARK    5  A    between atoms: C_21  and  C_22 
REMARK    6  A    between atoms: C_23  and  C_26 
ROOT
HETATM    1  C   LIG     1     -21.714 -13.966 -11.111  1.00  0.00     0.077 A 
HETATM    2  C   LIG     1     -22.406 -14.969 -11.771  1.00  0.00     0.057 A 
HETATM    3  C   LIG     1     -20.813 -13.151 -11.779  1.00  0.00     0.028 A 
HETATM    4  C   LIG     1     -22.194 -15.161 -13.136  1.00  0.00     0.070 A 
HETATM    5  C   LIG     1     -21.291 -14.349 -13.823  1.00  0.00     0.095 A 
HETATM    6  C   LIG     1     -20.601 -13.344 -13.144  1.00  0.00     0.040 A 
ENDROOT
BRANCH   4   7
HETATM    7  N   LIG     1     -22.891 -16.171 -13.802  1.00  0.00    -0.319 N 
HETATM    8  C   LIG     1     -22.415 -17.422 -14.241  1.00  0.00     0.280 C 
HETATM    9  O   LIG     1     -21.258 -17.808 -14.085  1.00  0.00    -0.265 OA
HETATM   10  H   LIG     1     -23.870 -15.967 -13.992  1.00  0.00     0.169 HD
BRANCH   8  11
HETATM   11  C   LIG     1     -23.401 -18.251 -14.955  1.00  0.00     0.144 A 
HETATM   12  O   LIG     1     -23.307 -19.570 -14.762  1.00  0.00    -0.304 OA
HETATM   13  C   LIG     1     -24.306 -20.101 -15.514  1.00  0.00     0.088 A 
HETATM   14  C   LIG     1     -25.005 -19.108 -16.160  1.00  0.00     0.041 A 
HETATM   15  C   LIG     1     -24.395 -17.889 -15.781  1.00  0.00     0.046 A 
BRANCH  13  16
HETATM   16  C   LIG     1     -24.414 -21.532 -15.472  1.00  0.00     0.019 A 
HETATM   17  C   LIG     1     -23.351 -22.350 -15.066  1.00  0.00     0.047 A 
HETATM   18 CL   LIG     1     -21.827 -21.686 -14.589  1.00  0.00    -0.083 Cl
HETATM   19  C   LIG     1     -23.498 -23.736 -15.040  1.00  0.00     0.025 A 
HETATM   20  C   LIG     1     -24.710 -24.316 -15.418  1.00  0.00     0.002 A 
HETATM   21  C   LIG     1     -25.773 -23.510 -15.822  1.00  0.00     0.001 A 
HETATM   22  C   LIG     1     -25.627 -22.123 -15.848  1.00  0.00     0.016 A 
ENDBRANCH  13  16
ENDBRANCH   8  11
ENDBRANCH   4   7
BRANCH   5  23
HETATM   23  O   LIG     1     -21.068 -14.521 -15.156  1.00  0.00    -0.354 OA
HETATM   24  C   LIG     1     -21.776 -13.661 -16.048  1.00  0.00     0.210 C 
ENDBRANCH   5  23
BRANCH   1  25
HETATM   25  S   LIG     1     -21.982 -13.722  -9.384  1.00  0.00     0.243 S 
HETATM   26  O   LIG     1     -20.719 -13.335  -8.791  1.00  0.00    -0.206 OA
HETATM   27  O   LIG     1     -23.163 -12.900  -9.228  1.00  0.00    -0.206 OA
BRANCH  25  28
HETATM   28  N   LIG     1     -22.354 -15.325  -8.910  1.00  0.00    -0.202 NA
HETATM   29  C   LIG     1     -21.326 -16.000  -8.065  1.00  0.00     0.134 C 
HETATM   30  C   LIG     1     -21.685 -17.475  -7.945  1.00  0.00     0.183 C 
HETATM   31  O   LIG     1     -22.990 -17.624  -7.383  1.00  0.00    -0.389 OA
HETATM   32  C   LIG     1     -23.980 -17.022  -8.219  1.00  0.00     0.183 C 
HETATM   33  C   LIG     1     -23.724 -15.528  -8.352  1.00  0.00     0.134 C 
ENDBRANCH  25  28
ENDBRANCH   1  25
TORSDOF 6
ENDMDL
MODEL 4
REMARK VINA RESULT:      -9.1      2.593      4.020
REMARK  6 active torsions:
REMARK  status: ('A' for Active; 'I' for Inactive)
REMARK    1  A    between atoms: S_2  and  N_9 
REMARK    2  A    between atoms: S_2  and  C_15 
REMARK    3  A    between atoms: O_6  and  C_19 
REMARK    4  A    between atoms: N_10  and  C_18 
REMARK       I    between atoms: N_10  and  C_21 
REMARK    5  A    between atoms: C_21  and  C_22 
REMARK    6  A    between atoms: C_23  and  C_26 
ROOT
HETATM    1  C   LIG     1     -19.514 -15.197 -13.316  1.00  0.00     0.077 A 
HETATM    2  C   LIG     1     -20.556 -15.860 -13.943  1.00  0.00     0.057 A 
HETATM    3  C   LIG     1     -18.528 -15.888 -12.629  1.00  0.00     0.028 A 
HETATM    4  C   LIG     1     -20.615 -17.253 -13.882  1.00  0.00     0.070 A 
HETATM    5  C   LIG     1     -19.631 -17.963 -13.195  1.00  0.00     0.095 A 
HETATM    6  C   LIG     1     -18.587 -17.281 -12.568  1.00  0.00     0.040 A 
ENDROOT
BRANCH   4   7
HETATM    7  N   LIG     1     -21.665 -17.922 -14.514  1.00  0.00    -0.319 N 
HETATM    8  C   LIG     1     -23.051 -17.741 -14.338  1.00  0.00     0.280 C 
HETATM    9  O   LIG     1     -23.543 -16.924 -13.562  1.00  0.00    -0.265 OA
HETATM   10  H   LIG     1     -21.383 -18.632 -15.186  1.00  0.00     0.169 HD
BRANCH   8  11
HETATM   11  C   LIG     1     -23.905 -18.642 -15.132  1.00  0.00     0.144 A 
HETATM   12  O   LIG     1     -23.778 -19.947 -14.873  1.00  0.00    -0.304 OA
HETATM   13  C   LIG     1     -24.653 -20.552 -15.717  1.00  0.00     0.088 A 
HETATM   14  C   LIG     1     -25.309 -19.619 -16.486  1.00  0.00     0.041 A 
HETATM   15  C   LIG     1     -24.804 -18.358 -16.087  1.00  0.00     0.046 A 
BRANCH  13  16
HETATM   16  C   LIG     1     -24.703 -21.984 -15.628  1.00  0.00     0.019 A 
HETATM   17  C   LIG     1     -23.624 -22.742 -15.153  1.00  0.00     0.047 A 
HETATM   18 CL   LIG     1     -22.150 -21.997 -14.640  1.00  0.00    -0.083 Cl
HETATM   19  C   LIG     1     -23.715 -24.132 -15.083  1.00  0.00     0.025 A 
HETATM   20  C   LIG     1     -24.884 -24.776 -15.487  1.00  0.00     0.002 A 
HETATM   21  C   LIG     1     -25.963 -24.030 -15.961  1.00  0.00     0.001 A 
HETATM   22  C   LIG     1     -25.873 -22.639 -16.031  1.00  0.00     0.016 A 
ENDBRANCH  13  16
ENDBRANCH   8  11
ENDBRANCH   4   7
BRANCH   5  23
HETATM   23  O   LIG     1     -19.670 -19.323 -13.123  1.00  0.00    -0.354 OA
HETATM   24  C   LIG     1     -19.163 -19.924 -11.933  1.00  0.00     0.210 C 
ENDBRANCH   5  23
BRANCH   1  25
HETATM   25  S   LIG     1     -19.439 -13.436 -13.393  1.00  0.00     0.243 S 
HETATM   26  O   LIG     1     -18.165 -13.023 -12.842  1.00  0.00    -0.206 OA
HETATM   27  O   LIG     1     -19.843 -13.030 -14.722  1.00  0.00    -0.206 OA
BRANCH  25  28
HETATM   28  N   LIG     1     -20.683 -13.034 -12.287  1.00  0.00    -0.202 NA
HETATM   29  C   LIG     1     -22.060 -12.984 -12.859  1.00  0.00     0.134 C 
HETATM   30  C   LIG     1     -22.997 -12.376 -11.825  1.00  0.00     0.183 C 
HETATM   31  O   LIG     1     -22.969 -13.142 -10.619  1.00  0.00    -0.389 OA
HETATM   32  C   LIG     1     -21.661 -13.147 -10.044  1.00  0.00     0.183 C 
HETATM   33  C   LIG     1     -20.665 -13.788 -10.999  1.00  0.00     0.134 C 
ENDBRANCH  25  28
ENDBRANCH   1  25
TORSDOF 6
ENDMDL
MODEL 5
REMARK VINA RESULT:      -8.6      6.264     11.832
REMARK  6 active torsions:
REMARK  status: ('A' for Active; 'I' for Inactive)
REMARK    1  A    between atoms: S_2  and  N_9 
REMARK    2  A    between atoms: S_2  and  C_15 
REMARK    3  A    between atoms: O_6  and  C_19 
REMARK    4  A    between atoms: N_10  and  C_18 
REMARK       I    between atoms: N_10  and  C_21 
REMARK    5  A    between atoms: C_21  and  C_22 
REMARK    6  A    between atoms: C_23  and  C_26 
ROOT
HETATM    1  C   LIG     1     -20.994 -15.388  -9.805  1.00  0.00     0.077 A 
HETATM    2  C   LIG     1     -20.805 -14.455  -8.798  1.00  0.00     0.057 A 
HETATM    3  C   LIG     1     -21.867 -15.149 -10.855  1.00  0.00     0.028 A 
HETATM    4  C   LIG     1     -21.506 -13.250  -8.843  1.00  0.00     0.070 A 
HETATM    5  C   LIG     1     -22.387 -12.994  -9.893  1.00  0.00     0.095 A 
HETATM    6  C   LIG     1     -22.568 -13.944 -10.899  1.00  0.00     0.040 A 
ENDROOT
BRANCH   4   7
HETATM    7  N   LIG     1     -21.316 -12.309  -7.829  1.00  0.00    -0.319 N 
HETATM    8  C   LIG     1     -21.173 -12.530  -6.445  1.00  0.00     0.280 C 
HETATM    9  O   LIG     1     -21.199 -13.642  -5.921  1.00  0.00    -0.265 OA
HETATM   10  H   LIG     1     -21.278 -11.341  -8.140  1.00  0.00     0.169 HD
BRANCH   8  11
HETATM   11  C   LIG     1     -21.027 -11.311  -5.629  1.00  0.00     0.144 A 
HETATM   12  O   LIG     1     -21.970 -11.110  -4.704  1.00  0.00    -0.304 OA
HETATM   13  C   LIG     1     -21.617  -9.945  -4.100  1.00  0.00     0.088 A 
HETATM   14  C   LIG     1     -20.464  -9.442  -4.655  1.00  0.00     0.041 A 
HETATM   15  C   LIG     1     -20.084 -10.357  -5.667  1.00  0.00     0.046 A 
BRANCH  13  16
HETATM   16  C   LIG     1     -22.492  -9.508  -3.049  1.00  0.00     0.019 A 
HETATM   17  C   LIG     1     -22.011  -9.107  -1.795  1.00  0.00     0.047 A 
HETATM   18 CL   LIG     1     -20.322  -9.116  -1.427  1.00  0.00    -0.083 Cl
HETATM   19  C   LIG     1     -22.896  -8.690  -0.801  1.00  0.00     0.025 A 
HETATM   20  C   LIG     1     -24.268  -8.668  -1.053  1.00  0.00     0.002 A 
HETATM   21  C   LIG     1     -24.755  -9.064  -2.298  1.00  0.00     0.001 A 
HETATM   22  C   LIG     1     -23.871  -9.482  -3.293  1.00  0.00     0.016 A 
ENDBRANCH  13  16
ENDBRANCH   8  11
ENDBRANCH   4   7
BRANCH   5  23
HETATM   23  O   LIG     1     -23.083 -11.824  -9.955  1.00  0.00    -0.354 OA
HETATM   24  C   LIG     1     -23.895 -11.613 -11.109  1.00  0.00     0.210 C 
ENDBRANCH   5  23
BRANCH   1  25
HETATM   25  S   LIG     1     -20.107 -16.913  -9.748  1.00  0.00     0.243 S 
HETATM   26  O   LIG     1     -18.859 -16.672  -9.055  1.00  0.00    -0.206 OA
HETATM   27  O   LIG     1     -21.021 -17.944  -9.304  1.00  0.00    -0.206 OA
BRANCH  25  28
HETATM   28  N   LIG     1     -19.787 -17.134 -11.416  1.00  0.00    -0.202 NA
HETATM   29  C   LIG     1     -19.053 -16.019 -12.083  1.00  0.00     0.134 C 
HETATM   30  C   LIG     1     -19.073 -16.253 -13.587  1.00  0.00     0.183 C 
HETATM   31  O   LIG     1     -18.483 -17.517 -13.900  1.00  0.00    -0.389 OA
HETATM   32  C   LIG     1     -19.217 -18.587 -13.304  1.00  0.00     0.183 C 
HETATM   33  C   LIG     1     -19.204 -18.457 -11.787  1.00  0.00     0.134 C 
ENDBRANCH  25  28
ENDBRANCH   1  25
TORSDOF 6
ENDMDL
MODEL 6
REMARK VINA RESULT:      -8.4      3.722      8.013
REMARK  6 active torsions:
REMARK  status: ('A' for Active; 'I' for Inactive)
REMARK    1  A    between atoms: S_2  and  N_9 
REMARK    2  A    between atoms: S_2  and  C_15 
REMARK    3  A    between atoms: O_6  and  C_19 
REMARK    4  A    between atoms: N_10  and  C_18 
REMARK       I    between atoms: N_10  and  C_21 
REMARK    5  A    between atoms: C_21  and  C_22 
REMARK    6  A    between atoms: C_23  and  C_26 
ROOT
HETATM    1  C   LIG     1     -22.467 -13.804 -15.266  1.00  0.00     0.077 A 
HETATM    2  C   LIG     1     -22.501 -13.914 -13.886  1.00  0.00     0.057 A 
HETATM    3  C   LIG     1     -21.300 -13.466 -15.935  1.00  0.00     0.028 A 
HETATM    4  C   LIG     1     -21.337 -13.680 -13.153  1.00  0.00     0.070 A 
HETATM    5  C   LIG     1     -20.155 -13.340 -13.811  1.00  0.00     0.095 A 
HETATM    6  C   LIG     1     -20.137 -13.233 -15.202  1.00  0.00     0.040 A 
ENDROOT
BRANCH   4   7
HETATM    7  N   LIG     1     -21.370 -13.791 -11.761  1.00  0.00    -0.319 N 
HETATM    8  C   LIG     1     -21.342 -12.761 -10.800  1.00  0.00     0.280 C 
HETATM    9  O   LIG     1     -21.281 -11.565 -11.078  1.00  0.00    -0.265 OA
HETATM   10  H   LIG     1     -21.420 -14.742 -11.405  1.00  0.00     0.169 HD
BRANCH   8  11
HETATM   11  C   LIG     1     -21.348 -13.214  -9.399  1.00  0.00     0.144 A 
HETATM   12  O   LIG     1     -21.740 -14.476  -9.193  1.00  0.00    -0.304 OA
HETATM   13  C   LIG     1     -21.660 -14.647  -7.848  1.00  0.00     0.088 A 
HETATM   14  C   LIG     1     -21.221 -13.494  -7.238  1.00  0.00     0.041 A 
HETATM   15  C   LIG     1     -21.019 -12.554  -8.277  1.00  0.00     0.046 A 
BRANCH  13  16
HETATM   16  C   LIG     1     -22.035 -15.947  -7.370  1.00  0.00     0.019 A 
HETATM   17  C   LIG     1     -21.309 -17.101  -7.694  1.00  0.00     0.047 A 
HETATM   18 CL   LIG     1     -19.905 -17.035  -8.701  1.00  0.00    -0.083 Cl
HETATM   19  C   LIG     1     -21.709 -18.346  -7.208  1.00  0.00     0.025 A 
HETATM   20  C   LIG     1     -22.837 -18.447  -6.394  1.00  0.00     0.002 A 
HETATM   21  C   LIG     1     -23.565 -17.304  -6.066  1.00  0.00     0.001 A 
HETATM   22  C   LIG     1     -23.166 -16.058  -6.551  1.00  0.00     0.016 A 
ENDBRANCH  13  16
ENDBRANCH   8  11
ENDBRANCH   4   7
BRANCH   5  23
HETATM   23  O   LIG     1     -19.007 -13.107 -13.114  1.00  0.00    -0.354 OA
HETATM   24  C   LIG     1     -17.954 -14.056 -13.264  1.00  0.00     0.210 C 
ENDBRANCH   5  23
BRANCH   1  25
HETATM   25  S   LIG     1     -23.939 -14.099 -16.194  1.00  0.00     0.243 S 
HETATM   26  O   LIG     1     -24.913 -13.099 -15.808  1.00  0.00    -0.206 OA
HETATM   27  O   LIG     1     -23.564 -14.279 -17.580  1.00  0.00    -0.206 OA
BRANCH  25  28
HETATM   28  N   LIG     1     -24.404 -15.613 -15.543  1.00  0.00    -0.202 NA
HETATM   29  C   LIG     1     -25.804 -16.036 -15.838  1.00  0.00     0.134 C 
HETATM   30  C   LIG     1     -26.133 -17.258 -14.992  1.00  0.00     0.183 C 
HETATM   31  O   LIG     1     -25.209 -18.314 -15.263  1.00  0.00    -0.389 OA
HETATM   32  C   LIG     1     -23.875 -17.926 -14.931  1.00  0.00     0.183 C 
HETATM   33  C   LIG     1     -23.445 -16.734 -15.774  1.00  0.00     0.134 C 
ENDBRANCH  25  28
ENDBRANCH   1  25
TORSDOF 6
ENDMDL
MODEL 7
REMARK VINA RESULT:      -8.3      6.284     11.183
REMARK  6 active torsions:
REMARK  status: ('A' for Active; 'I' for Inactive)
REMARK    1  A    between atoms: S_2  and  N_9 
REMARK    2  A    between atoms: S_2  and  C_15 
REMARK    3  A    between atoms: O_6  and  C_19 
REMARK    4  A    between atoms: N_10  and  C_18 
REMARK       I    between atoms: N_10  and  C_21 
REMARK    5  A    between atoms: C_21  and  C_22 
REMARK    6  A    between atoms: C_23  and  C_26 
ROOT
HETATM    1  C   LIG     1     -21.062 -14.641 -11.321  1.00  0.00     0.077 A 
HETATM    2  C   LIG     1     -20.771 -13.950 -10.156  1.00  0.00     0.057 A 
HETATM    3  C   LIG     1     -22.154 -14.304 -12.106  1.00  0.00     0.028 A 
HETATM    4  C   LIG     1     -21.592 -12.893  -9.765  1.00  0.00     0.070 A 
HETATM    5  C   LIG     1     -22.694 -12.541 -10.544  1.00  0.00     0.095 A 
HETATM    6  C   LIG     1     -22.975 -13.246 -11.715  1.00  0.00     0.040 A 
ENDROOT
BRANCH   4   7
HETATM    7  N   LIG     1     -21.299 -12.196  -8.591  1.00  0.00    -0.319 N 
HETATM    8  C   LIG     1     -21.141 -12.705  -7.287  1.00  0.00     0.280 C 
HETATM    9  O   LIG     1     -21.248 -13.895  -6.997  1.00  0.00    -0.265 OA
HETATM   10  H   LIG     1     -21.188 -11.191  -8.702  1.00  0.00     0.169 HD
BRANCH   8  11
HETATM   11  C   LIG     1     -20.874 -11.694  -6.249  1.00  0.00     0.144 A 
HETATM   12  O   LIG     1     -21.897 -11.400  -5.441  1.00  0.00    -0.304 OA
HETATM   13  C   LIG     1     -21.406 -10.461  -4.591  1.00  0.00     0.088 A 
HETATM   14  C   LIG     1     -20.090 -10.186  -4.881  1.00  0.00     0.041 A 
HETATM   15  C   LIG     1     -19.751 -11.009  -5.981  1.00  0.00     0.046 A 
BRANCH  13  16
HETATM   16  C   LIG     1     -22.333  -9.977  -3.607  1.00  0.00     0.019 A 
HETATM   17  C   LIG     1     -21.911  -9.406  -2.399  1.00  0.00     0.047 A 
HETATM   18 CL   LIG     1     -20.233  -9.248  -2.010  1.00  0.00    -0.083 Cl
HETATM   19  C   LIG     1     -22.845  -8.948  -1.471  1.00  0.00     0.025 A 
HETATM   20  C   LIG     1     -24.209  -9.057  -1.742  1.00  0.00     0.002 A 
HETATM   21  C   LIG     1     -24.638  -9.623  -2.942  1.00  0.00     0.001 A 
HETATM   22  C   LIG     1     -23.704 -10.081  -3.871  1.00  0.00     0.016 A 
ENDBRANCH  13  16
ENDBRANCH   8  11
ENDBRANCH   4   7
BRANCH   5  23
HETATM   23  O   LIG     1     -23.510 -11.512 -10.180  1.00  0.00    -0.354 OA
HETATM   24  C   LIG     1     -24.541 -11.146 -11.095  1.00  0.00     0.210 C 
ENDBRANCH   5  23
BRANCH   1  25
HETATM   25  S   LIG     1     -20.023 -15.979 -11.816  1.00  0.00     0.243 S 
HETATM   26  O   LIG     1     -20.753 -16.771 -12.784  1.00  0.00    -0.206 OA
HETATM   27  O   LIG     1     -18.718 -15.437 -12.129  1.00  0.00    -0.206 OA
BRANCH  25  28
HETATM   28  N   LIG     1     -19.927 -16.845 -10.343  1.00  0.00    -0.202 NA
HETATM   29  C   LIG     1     -21.224 -17.060  -9.638  1.00  0.00     0.134 C 
HETATM   30  C   LIG     1     -20.940 -17.611  -8.248  1.00  0.00     0.183 C 
HETATM   31  O   LIG     1     -20.196 -18.827  -8.338  1.00  0.00    -0.389 OA
HETATM   32  C   LIG     1     -18.931 -18.610  -8.967  1.00  0.00     0.183 C 
HETATM   33  C   LIG     1     -19.127 -18.104 -10.389  1.00  0.00     0.134 C 
ENDBRANCH  25  28
ENDBRANCH   1  25
TORSDOF 6
ENDMDL
MODEL 8
REMARK VINA RESULT:      -8.3      2.679      3.560
REMARK  6 active torsions:
REMARK  status: ('A' for Active; 'I' for Inactive)
REMARK    1  A    between atoms: S_2  and  N_9 
REMARK    2  A    between atoms: S_2  and  C_15 
REMARK    3  A    between atoms: O_6  and  C_19 
REMARK    4  A    between atoms: N_10  and  C_18 
REMARK       I    between atoms: N_10  and  C_21 
REMARK    5  A    between atoms: C_21  and  C_22 
REMARK    6  A    between atoms: C_23  and  C_26 
ROOT
HETATM    1  C   LIG     1     -19.436 -17.290 -11.409  1.00  0.00     0.077 A 
HETATM    2  C   LIG     1     -20.404 -17.908 -12.184  1.00  0.00     0.057 A 
HETATM    3  C   LIG     1     -18.787 -16.145 -11.844  1.00  0.00     0.028 A 
HETATM    4  C   LIG     1     -20.733 -17.367 -13.427  1.00  0.00     0.070 A 
HETATM    5  C   LIG     1     -20.089 -16.216 -13.878  1.00  0.00     0.095 A 
HETATM    6  C   LIG     1     -19.116 -15.604 -13.087  1.00  0.00     0.040 A 
ENDROOT
BRANCH   4   7
HETATM    7  N   LIG     1     -21.709 -17.990 -14.208  1.00  0.00    -0.319 N 
HETATM    8  C   LIG     1     -23.083 -17.692 -14.294  1.00  0.00     0.280 C 
HETATM    9  O   LIG     1     -23.632 -16.796 -13.655  1.00  0.00    -0.265 OA
HETATM   10  H   LIG     1     -21.374 -18.757 -14.787  1.00  0.00     0.169 HD
BRANCH   8  11
HETATM   11  C   LIG     1     -23.858 -18.569 -15.188  1.00  0.00     0.144 A 
HETATM   12  O   LIG     1     -23.808 -19.876 -14.913  1.00  0.00    -0.304 OA
HETATM   13  C   LIG     1     -24.588 -20.458 -15.861  1.00  0.00     0.088 A 
HETATM   14  C   LIG     1     -25.110 -19.508 -16.709  1.00  0.00     0.041 A 
HETATM   15  C   LIG     1     -24.618 -18.262 -16.251  1.00  0.00     0.046 A 
BRANCH  13  16
HETATM   16  C   LIG     1     -24.696 -21.887 -15.777  1.00  0.00     0.019 A 
HETATM   17  C   LIG     1     -23.674 -22.684 -15.243  1.00  0.00     0.047 A 
HETATM   18 CL   LIG     1     -22.204 -21.994 -14.650  1.00  0.00    -0.083 Cl
HETATM   19  C   LIG     1     -23.821 -24.069 -15.180  1.00  0.00     0.025 A 
HETATM   20  C   LIG     1     -24.990 -24.669 -15.649  1.00  0.00     0.002 A 
HETATM   21  C   LIG     1     -26.012 -23.884 -16.180  1.00  0.00     0.001 A 
HETATM   22  C   LIG     1     -25.867 -22.498 -16.244  1.00  0.00     0.016 A 
ENDBRANCH  13  16
ENDBRANCH   8  11
ENDBRANCH   4   7
BRANCH   5  23
HETATM   23  O   LIG     1     -20.395 -15.671 -15.090  1.00  0.00    -0.354 OA
HETATM   24  C   LIG     1     -21.246 -14.527 -15.090  1.00  0.00     0.210 C 
ENDBRANCH   5  23
BRANCH   1  25
HETATM   25  S   LIG     1     -19.020 -17.974  -9.837  1.00  0.00     0.243 S 
HETATM   26  O   LIG     1     -19.122 -19.415  -9.940  1.00  0.00    -0.206 OA
HETATM   27  O   LIG     1     -17.798 -17.344  -9.385  1.00  0.00    -0.206 OA
BRANCH  25  28
HETATM   28  N   LIG     1     -20.327 -17.387  -8.899  1.00  0.00    -0.202 NA
HETATM   29  C   LIG     1     -20.930 -18.370  -7.952  1.00  0.00     0.134 C 
HETATM   30  C   LIG     1     -22.217 -17.780  -7.391  1.00  0.00     0.183 C 
HETATM   31  O   LIG     1     -21.951 -16.536  -6.741  1.00  0.00    -0.389 OA
HETATM   32  C   LIG     1     -21.422 -15.579  -7.661  1.00  0.00     0.183 C 
HETATM   33  C   LIG     1     -20.100 -16.071  -8.234  1.00  0.00     0.134 C 
ENDBRANCH  25  28
ENDBRANCH   1  25
TORSDOF 6
ENDMDL
MODEL 9
REMARK VINA RESULT:      -8.2      3.819      6.517
REMARK  6 active torsions:
REMARK  status: ('A' for Active; 'I' for Inactive)
REMARK    1  A    between atoms: S_2  and  N_9 
REMARK    2  A    between atoms: S_2  and  C_15 
REMARK    3  A    between atoms: O_6  and  C_19 
REMARK    4  A    between atoms: N_10  and  C_18 
REMARK       I    between atoms: N_10  and  C_21 
REMARK    5  A    between atoms: C_21  and  C_22 
REMARK    6  A    between atoms: C_23  and  C_26 
ROOT
HETATM    1  C   LIG     1     -23.315 -13.636 -14.632  1.00  0.00     0.077 A 
HETATM    2  C   LIG     1     -22.574 -14.567 -13.922  1.00  0.00     0.057 A 
HETATM    3  C   LIG     1     -23.698 -12.432 -14.062  1.00  0.00     0.028 A 
HETATM    4  C   LIG     1     -22.204 -14.286 -12.607  1.00  0.00     0.070 A 
HETATM    5  C   LIG     1     -22.580 -13.079 -12.019  1.00  0.00     0.095 A 
HETATM    6  C   LIG     1     -23.328 -12.152 -12.746  1.00  0.00     0.040 A 
ENDROOT
BRANCH   4   7
HETATM    7  N   LIG     1     -21.456 -15.223 -11.891  1.00  0.00    -0.319 N 
HETATM    8  C   LIG     1     -20.061 -15.266 -11.696  1.00  0.00     0.280 C 
HETATM    9  O   LIG     1     -19.278 -14.438 -12.157  1.00  0.00    -0.265 OA
HETATM   10  H   LIG     1     -21.997 -15.968 -11.458  1.00  0.00     0.169 HD
BRANCH   8  11
HETATM   11  C   LIG     1     -19.574 -16.419 -10.919  1.00  0.00     0.144 A 
HETATM   12  O   LIG     1     -19.671 -17.611 -11.516  1.00  0.00    -0.304 OA
HETATM   13  C   LIG     1     -19.166 -18.491 -10.613  1.00  0.00     0.088 A 
HETATM   14  C   LIG     1     -18.765 -17.837  -9.471  1.00  0.00     0.041 A 
HETATM   15  C   LIG     1     -19.041 -16.465  -9.688  1.00  0.00     0.046 A 
BRANCH  13  16
HETATM   16  C   LIG     1     -19.160 -19.865 -11.029  1.00  0.00     0.019 A 
HETATM   17  C   LIG     1     -18.988 -20.920 -10.124  1.00  0.00     0.047 A 
HETATM   18 CL   LIG     1     -18.767 -20.635  -8.432  1.00  0.00    -0.083 Cl
HETATM   19  C   LIG     1     -18.988 -22.241 -10.571  1.00  0.00     0.025 A 
HETATM   20  C   LIG     1     -19.161 -22.518 -11.927  1.00  0.00     0.002 A 
HETATM   21  C   LIG     1     -19.334 -21.474 -12.836  1.00  0.00     0.001 A 
HETATM   22  C   LIG     1     -19.334 -20.152 -12.389  1.00  0.00     0.016 A 
ENDBRANCH  13  16
ENDBRANCH   8  11
ENDBRANCH   4   7
BRANCH   5  23
HETATM   23  O   LIG     1     -22.230 -12.785 -10.735  1.00  0.00    -0.354 OA
HETATM   24  C   LIG     1     -23.291 -12.569  -9.807  1.00  0.00     0.210 C 
ENDBRANCH   5  23
BRANCH   1  25
HETATM   25  S   LIG     1     -23.784 -13.992 -16.296  1.00  0.00     0.243 S 
HETATM   26  O   LIG     1     -24.876 -13.107 -16.646  1.00  0.00    -0.206 OA
HETATM   27  O   LIG     1     -22.579 -14.043 -17.097  1.00  0.00    -0.206 OA
BRANCH  25  28
HETATM   28  N   LIG     1     -24.391 -15.581 -16.104  1.00  0.00    -0.202 NA
HETATM   29  C   LIG     1     -23.431 -16.571 -15.535  1.00  0.00     0.134 C 
HETATM   30  C   LIG     1     -24.032 -17.964 -15.664  1.00  0.00     0.183 C 
HETATM   31  O   LIG     1     -25.292 -18.025 -14.992  1.00  0.00    -0.389 OA
HETATM   32  C   LIG     1     -26.227 -17.113 -15.571  1.00  0.00     0.183 C 
HETATM   33  C   LIG     1     -25.724 -15.683 -15.438  1.00  0.00     0.134 C 
ENDBRANCH  25  28
ENDBRANCH   1  25
TORSDOF 6
ENDMDL
