MODEL 1
REMARK VINA RESULT:      -9.0      0.000      0.000
REMARK  1 active torsions:
REMARK  status: ('A' for Active; 'I' for Inactive)
REMARK    1  A    between atoms: O_1  and  C_10 
ROOT
HETATM    1  O   LIG     1     -19.085 -21.822 -10.295  1.00  0.00    -0.293 OA
HETATM    2  C   LIG     1     -21.455 -15.174 -13.219  1.00  0.00     0.001 C 
HETATM    3  C   LIG     1     -21.467 -13.955 -12.276  1.00  0.00    -0.014 C 
HETATM    4  C   LIG     1     -20.304 -16.141 -12.920  1.00  0.00    -0.004 C 
HETATM    5  C   LIG     1     -20.449 -16.655 -11.453  1.00  0.00     0.002 C 
HETATM    6  C   LIG     1     -19.332 -17.697 -11.058  1.00  0.00    -0.016 C 
HETATM    7  C   LIG     1     -21.682 -14.463 -10.845  1.00  0.00     0.012 C 
HETATM    8  C   LIG     1     -20.607 -15.486 -10.441  1.00  0.00     0.007 C 
HETATM    9  C   LIG     1     -22.660 -13.187 -12.874  1.00  0.00     0.126 C 
HETATM   10  C   LIG     1     -21.563 -14.551 -14.608  1.00  0.00     0.008 C 
HETATM   11  C   LIG     1     -20.302 -17.324 -13.896  1.00  0.00     0.010 C 
HETATM   12  C   LIG     1     -22.467 -13.323 -14.398  1.00  0.00     0.033 C 
HETATM   13  C   LIG     1     -19.232 -18.778 -12.142  1.00  0.00    -0.068 C 
HETATM   14  C   LIG     1     -19.177 -18.300 -13.574  1.00  0.00     0.035 C 
HETATM   15  C   LIG     1     -20.185 -13.085 -12.330  1.00  0.00     0.018 C 
HETATM   16  C   LIG     1     -19.726 -18.343  -9.698  1.00  0.00     0.022 C 
HETATM   17  C   LIG     1     -17.945 -17.030 -10.913  1.00  0.00     0.020 C 
HETATM   18  C   LIG     1     -18.953 -19.613  -9.379  1.00  0.00     0.084 C 
HETATM   19  C   LIG     1     -19.169 -20.095 -11.886  1.00  0.00     0.053 C 
HETATM   20  C   LIG     1     -19.098 -20.609 -10.499  1.00  0.00     0.149 C 
ENDROOT
BRANCH   9  21
HETATM   21  O   LIG     1     -22.704 -11.831 -12.472  1.00  0.00    -0.395 OA
HETATM   22  H   LIG     1     -22.599 -11.786 -11.507  1.00  0.00     0.210 HD
ENDBRANCH   9  21
TORSDOF 1
ENDMDL
