MODEL 1
REMARK VINA RESULT:      -9.6      0.000      0.000
REMARK  1 active torsions:
REMARK  status: ('A' for Active; 'I' for Inactive)
REMARK    1  A    between atoms: C_10  and  C_15 
ROOT
HETATM    1 CL   LIG     1     -18.674 -19.803  -8.931  1.00  0.00    -0.084 Cl
HETATM    2  N   LIG     1     -20.622 -15.371 -12.365  1.00  0.00    -0.300 N 
HETATM    3  N   LIG     1     -21.512 -14.227  -9.676  1.00  0.00    -0.282 NA
HETATM    4  N   LIG     1     -21.151 -14.205 -14.201  1.00  0.00    -0.245 NA
HETATM    5  C   LIG     1     -20.244 -16.449 -11.531  1.00  0.00     0.053 A 
HETATM    6  C   LIG     1     -20.805 -14.062 -11.969  1.00  0.00     0.056 A 
HETATM    7  C   LIG     1     -20.543 -16.465 -10.153  1.00  0.00     0.022 A 
HETATM    8  C   LIG     1     -20.566 -13.603 -10.581  1.00  0.00     0.208 C 
HETATM    9  C   LIG     1     -21.489 -15.504  -9.495  1.00  0.00     0.077 C 
HETATM   10  C   LIG     1     -20.805 -15.382 -13.730  1.00  0.00     0.107 A 
HETATM   11  C   LIG     1     -21.153 -13.379 -13.112  1.00  0.00     0.145 A 
HETATM   12  C   LIG     1     -19.519 -17.511 -12.096  1.00  0.00     0.032 A 
HETATM   13  C   LIG     1     -20.032 -17.505  -9.357  1.00  0.00     0.040 A 
HETATM   14  C   LIG     1     -20.817 -16.592 -14.585  1.00  0.00     0.091 C 
HETATM   15  C   LIG     1     -19.042 -18.548 -11.293  1.00  0.00     0.026 A 
HETATM   16  C   LIG     1     -19.285 -18.537  -9.924  1.00  0.00     0.035 A 
ENDROOT
BRANCH   9  17
HETATM   17  C   LIG     1     -22.519 -16.054  -8.565  1.00  0.00     0.032 A 
HETATM   18  C   LIG     1     -22.216 -16.214  -7.219  1.00  0.00     0.129 A 
HETATM   19  F   LIG     1     -21.009 -15.881  -6.740  1.00  0.00    -0.205 F 
HETATM   20  C   LIG     1     -23.181 -16.727  -6.354  1.00  0.00     0.043 A 
HETATM   21  C   LIG     1     -24.440 -17.076  -6.840  1.00  0.00     0.003 A 
HETATM   22  C   LIG     1     -24.735 -16.912  -8.194  1.00  0.00     0.001 A 
HETATM   23  C   LIG     1     -23.770 -16.399  -9.060  1.00  0.00     0.017 A 
ENDBRANCH   9  17
TORSDOF 1
ENDMDL
