MODEL 1
REMARK VINA RESULT:      -6.4      0.000      0.000
REMARK  8 active torsions:
REMARK  status: ('A' for Active; 'I' for Inactive)
REMARK    1  A    between atoms: O_2  and  C_7 
REMARK    2  A    between atoms: O_2  and  C_11 
REMARK    3  A    between atoms: O_3  and  C_9 
REMARK    4  A    between atoms: O_3  and  C_19 
REMARK    5  A    between atoms: N_6  and  C_8 
REMARK       I    between atoms: N_6  and  C_19 
REMARK    6  A    between atoms: C_8  and  C_10 
REMARK    7  A    between atoms: C_8  and  C_11 
REMARK    8  A    between atoms: C_10  and  C_18 
ROOT
HETATM    1  C   LIG     1     -19.841 -16.556 -10.482  1.00  0.00     0.187 C 
ENDROOT
BRANCH   1   2
HETATM    2  N   LIG     1     -21.017 -17.116  -9.866  1.00  0.00    -0.323 N 
HETATM    3  C   LIG     1     -21.386 -16.878  -8.556  1.00  0.00     0.362 C 
HETATM    4  O   LIG     1     -20.776 -16.173  -7.759  1.00  0.00    -0.238 OA
HETATM    5  H   LIG     1     -21.608 -17.729 -10.420  1.00  0.00     0.165 HD
BRANCH   3   6
HETATM    6  O   LIG     1     -22.543 -17.548  -8.272  1.00  0.00    -0.294 OA
BRANCH   6   7
HETATM    7  C   LIG     1     -23.743 -16.766  -8.311  1.00  0.00     0.061 C 
HETATM    8  C   LIG     1     -23.363 -15.303  -8.534  1.00  0.00     0.046 C 
HETATM    9  C   LIG     1     -24.447 -16.938  -6.966  1.00  0.00     0.046 C 
HETATM   10  C   LIG     1     -24.623 -17.280  -9.449  1.00  0.00     0.046 C 
ENDBRANCH   6   7
ENDBRANCH   3   6
ENDBRANCH   1   2
BRANCH   1  11
HETATM   11  C   LIG     1     -18.661 -17.532 -10.403  1.00  0.00     0.045 C 
BRANCH  11  12
HETATM   12  C   LIG     1     -19.065 -19.002 -10.574  1.00  0.00     0.082 C 
HETATM   13  I   LIG     1     -19.084 -19.998  -8.674  1.00  0.00    -0.090 I 
ENDBRANCH  11  12
ENDBRANCH   1  11
BRANCH   1  14
HETATM   14  C   LIG     1     -20.094 -16.094 -11.911  1.00  0.00     0.282 C 
HETATM   15  O   LIG     1     -20.648 -16.799 -12.747  1.00  0.00    -0.263 OA
BRANCH  14  16
HETATM   16  O   LIG     1     -19.638 -14.828 -12.128  1.00  0.00    -0.310 OA
BRANCH  16  17
HETATM   17  C   LIG     1     -20.630 -13.865 -12.499  1.00  0.00     0.060 C 
HETATM   18  C   LIG     1     -21.985 -14.334 -11.970  1.00  0.00     0.045 C 
HETATM   19  C   LIG     1     -20.647 -13.786 -14.023  1.00  0.00     0.045 C 
HETATM   20  C   LIG     1     -20.246 -12.515 -11.895  1.00  0.00     0.045 C 
ENDBRANCH  16  17
ENDBRANCH  14  16
ENDBRANCH   1  14
TORSDOF 8
ENDMDL
MODEL 2
REMARK VINA RESULT:      -6.4      0.993      5.275
REMARK  8 active torsions:
REMARK  status: ('A' for Active; 'I' for Inactive)
REMARK    1  A    between atoms: O_2  and  C_7 
REMARK    2  A    between atoms: O_2  and  C_11 
REMARK    3  A    between atoms: O_3  and  C_9 
REMARK    4  A    between atoms: O_3  and  C_19 
REMARK    5  A    between atoms: N_6  and  C_8 
REMARK       I    between atoms: N_6  and  C_19 
REMARK    6  A    between atoms: C_8  and  C_10 
REMARK    7  A    between atoms: C_8  and  C_11 
REMARK    8  A    between atoms: C_10  and  C_18 
ROOT
HETATM    1  C   LIG     1     -20.586 -16.810  -9.721  1.00  0.00     0.187 C 
ENDROOT
BRANCH   1   2
HETATM    2  N   LIG     1     -20.514 -15.558 -10.431  1.00  0.00    -0.323 N 
HETATM    3  C   LIG     1     -21.171 -15.309 -11.620  1.00  0.00     0.362 C 
HETATM    4  O   LIG     1     -21.889 -16.104 -12.219  1.00  0.00    -0.238 OA
HETATM    5  H   LIG     1     -19.940 -14.815 -10.043  1.00  0.00     0.165 HD
BRANCH   3   6
HETATM    6  O   LIG     1     -20.904 -14.037 -12.039  1.00  0.00    -0.294 OA
BRANCH   6   7
HETATM    7  C   LIG     1     -19.867 -13.906 -13.019  1.00  0.00     0.061 C 
HETATM    8  C   LIG     1     -19.027 -12.676 -12.676  1.00  0.00     0.046 C 
HETATM    9  C   LIG     1     -20.539 -13.734 -14.379  1.00  0.00     0.046 C 
HETATM   10  C   LIG     1     -19.013 -15.173 -12.996  1.00  0.00     0.046 C 
ENDBRANCH   6   7
ENDBRANCH   3   6
ENDBRANCH   1   2
BRANCH   1  11
HETATM   11  C   LIG     1     -19.191 -17.423  -9.544  1.00  0.00     0.045 C 
BRANCH  11  12
HETATM   12  C   LIG     1     -19.112 -18.900  -9.948  1.00  0.00     0.082 C 
HETATM   13  I   LIG     1     -19.245 -20.158  -8.215  1.00  0.00    -0.090 I 
ENDBRANCH  11  12
ENDBRANCH   1  11
BRANCH   1  14
HETATM   14  C   LIG     1     -21.320 -16.688  -8.393  1.00  0.00     0.282 C 
HETATM   15  O   LIG     1     -20.932 -15.960  -7.486  1.00  0.00    -0.263 OA
BRANCH  14  16
HETATM   16  O   LIG     1     -22.435 -17.471  -8.350  1.00  0.00    -0.310 OA
BRANCH  16  17
HETATM   17  C   LIG     1     -23.684 -16.773  -8.329  1.00  0.00     0.060 C 
HETATM   18  C   LIG     1     -23.415 -15.286  -8.549  1.00  0.00     0.045 C 
HETATM   19  C   LIG     1     -24.319 -17.007  -6.960  1.00  0.00     0.045 C 
HETATM   20  C   LIG     1     -24.574 -17.336  -9.437  1.00  0.00     0.045 C 
ENDBRANCH  16  17
ENDBRANCH  14  16
ENDBRANCH   1  14
TORSDOF 8
ENDMDL
MODEL 3
REMARK VINA RESULT:      -6.3      3.821      6.596
REMARK  8 active torsions:
REMARK  status: ('A' for Active; 'I' for Inactive)
REMARK    1  A    between atoms: O_2  and  C_7 
REMARK    2  A    between atoms: O_2  and  C_11 
REMARK    3  A    between atoms: O_3  and  C_9 
REMARK    4  A    between atoms: O_3  and  C_19 
REMARK    5  A    between atoms: N_6  and  C_8 
REMARK       I    between atoms: N_6  and  C_19 
REMARK    6  A    between atoms: C_8  and  C_10 
REMARK    7  A    between atoms: C_8  and  C_11 
REMARK    8  A    between atoms: C_10  and  C_18 
ROOT
HETATM    1  C   LIG     1     -21.600 -13.023 -12.256  1.00  0.00     0.187 C 
ENDROOT
BRANCH   1   2
HETATM    2  N   LIG     1     -22.424 -12.559 -13.344  1.00  0.00    -0.323 N 
HETATM    3  C   LIG     1     -23.198 -13.390 -14.131  1.00  0.00     0.362 C 
HETATM    4  O   LIG     1     -23.286 -14.608 -14.012  1.00  0.00    -0.238 OA
HETATM    5  H   LIG     1     -22.432 -11.566 -13.554  1.00  0.00     0.165 HD
BRANCH   3   6
HETATM    6  O   LIG     1     -23.859 -12.652 -15.072  1.00  0.00    -0.294 OA
BRANCH   6   7
HETATM    7  C   LIG     1     -23.739 -13.111 -16.423  1.00  0.00     0.061 C 
HETATM    8  C   LIG     1     -22.309 -13.604 -16.644  1.00  0.00     0.046 C 
HETATM    9  C   LIG     1     -24.047 -11.929 -17.340  1.00  0.00     0.046 C 
HETATM   10  C   LIG     1     -24.745 -14.240 -16.645  1.00  0.00     0.046 C 
ENDBRANCH   6   7
ENDBRANCH   3   6
ENDBRANCH   1   2
BRANCH   1  11
HETATM   11  C   LIG     1     -20.113 -12.792 -12.555  1.00  0.00     0.045 C 
BRANCH  11  12
HETATM   12  C   LIG     1     -19.647 -13.418 -13.875  1.00  0.00     0.082 C 
HETATM   13  I   LIG     1     -17.922 -14.652 -13.549  1.00  0.00    -0.090 I 
ENDBRANCH  11  12
ENDBRANCH   1  11
BRANCH   1  14
HETATM   14  C   LIG     1     -22.005 -12.421 -10.918  1.00  0.00     0.282 C 
HETATM   15  O   LIG     1     -23.007 -11.728 -10.779  1.00  0.00    -0.263 OA
BRANCH  14  16
HETATM   16  O   LIG     1     -21.132 -12.747  -9.923  1.00  0.00    -0.310 OA
BRANCH  16  17
HETATM   17  C   LIG     1     -21.507 -13.863  -9.109  1.00  0.00     0.060 C 
HETATM   18  C   LIG     1     -23.020 -14.047  -9.202  1.00  0.00     0.045 C 
HETATM   19  C   LIG     1     -21.091 -13.545  -7.674  1.00  0.00     0.045 C 
HETATM   20  C   LIG     1     -20.774 -15.104  -9.617  1.00  0.00     0.045 C 
ENDBRANCH  16  17
ENDBRANCH  14  16
ENDBRANCH   1  14
TORSDOF 8
ENDMDL
MODEL 4
REMARK VINA RESULT:      -6.2      3.770      6.634
REMARK  8 active torsions:
REMARK  status: ('A' for Active; 'I' for Inactive)
REMARK    1  A    between atoms: O_2  and  C_7 
REMARK    2  A    between atoms: O_2  and  C_11 
REMARK    3  A    between atoms: O_3  and  C_9 
REMARK    4  A    between atoms: O_3  and  C_19 
REMARK    5  A    between atoms: N_6  and  C_8 
REMARK       I    between atoms: N_6  and  C_19 
REMARK    6  A    between atoms: C_8  and  C_10 
REMARK    7  A    between atoms: C_8  and  C_11 
REMARK    8  A    between atoms: C_10  and  C_18 
ROOT
HETATM    1  C   LIG     1     -20.987 -13.382 -13.306  1.00  0.00     0.187 C 
ENDROOT
BRANCH   1   2
HETATM    2  N   LIG     1     -21.419 -12.941 -14.608  1.00  0.00    -0.323 N 
HETATM    3  C   LIG     1     -21.946 -13.781 -15.569  1.00  0.00     0.362 C 
HETATM    4  O   LIG     1     -22.114 -14.991 -15.446  1.00  0.00    -0.238 OA
HETATM    5  H   LIG     1     -21.324 -11.957 -14.841  1.00  0.00     0.165 HD
BRANCH   3   6
HETATM    6  O   LIG     1     -22.257 -13.065 -16.690  1.00  0.00    -0.294 OA
BRANCH   6   7
HETATM    7  C   LIG     1     -23.644 -13.037 -17.048  1.00  0.00     0.061 C 
HETATM    8  C   LIG     1     -24.472 -13.402 -15.816  1.00  0.00     0.046 C 
HETATM    9  C   LIG     1     -23.852 -14.066 -18.158  1.00  0.00     0.046 C 
HETATM   10  C   LIG     1     -23.992 -11.634 -17.543  1.00  0.00     0.046 C 
ENDBRANCH   6   7
ENDBRANCH   3   6
ENDBRANCH   1   2
BRANCH   1  11
HETATM   11  C   LIG     1     -19.486 -13.132 -13.110  1.00  0.00     0.045 C 
BRANCH  11  12
HETATM   12  C   LIG     1     -18.610 -14.340 -13.462  1.00  0.00     0.082 C 
HETATM   13  I   LIG     1     -19.224 -16.062 -12.339  1.00  0.00    -0.090 I 
ENDBRANCH  11  12
ENDBRANCH   1  11
BRANCH   1  14
HETATM   14  C   LIG     1     -21.811 -12.774 -12.179  1.00  0.00     0.282 C 
HETATM   15  O   LIG     1     -22.885 -12.216 -12.371  1.00  0.00    -0.263 OA
BRANCH  14  16
HETATM   16  O   LIG     1     -21.213 -12.930 -10.964  1.00  0.00    -0.310 OA
BRANCH  16  17
HETATM   17  C   LIG     1     -21.953 -13.685 -10.000  1.00  0.00     0.060 C 
HETATM   18  C   LIG     1     -22.566 -14.899 -10.697  1.00  0.00     0.045 C 
HETATM   19  C   LIG     1     -23.047 -12.775  -9.446  1.00  0.00     0.045 C 
HETATM   20  C   LIG     1     -21.001 -14.119  -8.887  1.00  0.00     0.045 C 
ENDBRANCH  16  17
ENDBRANCH  14  16
ENDBRANCH   1  14
TORSDOF 8
ENDMDL
MODEL 5
REMARK VINA RESULT:      -6.2      3.898      5.095
REMARK  8 active torsions:
REMARK  status: ('A' for Active; 'I' for Inactive)
REMARK    1  A    between atoms: O_2  and  C_7 
REMARK    2  A    between atoms: O_2  and  C_11 
REMARK    3  A    between atoms: O_3  and  C_9 
REMARK    4  A    between atoms: O_3  and  C_19 
REMARK    5  A    between atoms: N_6  and  C_8 
REMARK       I    between atoms: N_6  and  C_19 
REMARK    6  A    between atoms: C_8  and  C_10 
REMARK    7  A    between atoms: C_8  and  C_11 
REMARK    8  A    between atoms: C_10  and  C_18 
ROOT
HETATM    1  C   LIG     1     -22.112 -14.109 -13.929  1.00  0.00     0.187 C 
ENDROOT
BRANCH   1   2
HETATM    2  N   LIG     1     -22.608 -14.114 -12.576  1.00  0.00    -0.323 N 
HETATM    3  C   LIG     1     -21.905 -13.616 -11.497  1.00  0.00     0.362 C 
HETATM    4  O   LIG     1     -20.786 -13.113 -11.544  1.00  0.00    -0.238 OA
HETATM    5  H   LIG     1     -23.525 -14.514 -12.399  1.00  0.00     0.165 HD
BRANCH   3   6
HETATM    6  O   LIG     1     -22.641 -13.765 -10.355  1.00  0.00    -0.294 OA
BRANCH   6   7
HETATM    7  C   LIG     1     -22.203 -14.795  -9.460  1.00  0.00     0.061 C 
HETATM    8  C   LIG     1     -21.656 -15.958 -10.287  1.00  0.00     0.046 C 
HETATM    9  C   LIG     1     -23.415 -15.240  -8.644  1.00  0.00     0.046 C 
HETATM   10  C   LIG     1     -21.122 -14.219  -8.547  1.00  0.00     0.046 C 
ENDBRANCH   6   7
ENDBRANCH   3   6
ENDBRANCH   1   2
BRANCH   1  11
HETATM   11  C   LIG     1     -22.126 -15.522 -14.525  1.00  0.00     0.045 C 
BRANCH  11  12
HETATM   12  C   LIG     1     -23.194 -16.437 -13.914  1.00  0.00     0.082 C 
HETATM   13  I   LIG     1     -23.540 -18.132 -15.183  1.00  0.00    -0.090 I 
ENDBRANCH  11  12
ENDBRANCH   1  11
BRANCH   1  14
HETATM   14  C   LIG     1     -22.848 -13.116 -14.817  1.00  0.00     0.282 C 
HETATM   15  O   LIG     1     -23.511 -12.187 -14.367  1.00  0.00    -0.263 OA
BRANCH  14  16
HETATM   16  O   LIG     1     -22.675 -13.386 -16.142  1.00  0.00    -0.310 OA
BRANCH  16  17
HETATM   17  C   LIG     1     -23.859 -13.347 -16.944  1.00  0.00     0.060 C 
HETATM   18  C   LIG     1     -24.999 -13.997 -16.163  1.00  0.00     0.045 C 
HETATM   19  C   LIG     1     -23.573 -14.127 -18.225  1.00  0.00     0.045 C 
HETATM   20  C   LIG     1     -24.181 -11.888 -17.265  1.00  0.00     0.045 C 
ENDBRANCH  16  17
ENDBRANCH  14  16
ENDBRANCH   1  14
TORSDOF 8
ENDMDL
MODEL 6
REMARK VINA RESULT:      -6.2      2.384      2.920
REMARK  8 active torsions:
REMARK  status: ('A' for Active; 'I' for Inactive)
REMARK    1  A    between atoms: O_2  and  C_7 
REMARK    2  A    between atoms: O_2  and  C_11 
REMARK    3  A    between atoms: O_3  and  C_9 
REMARK    4  A    between atoms: O_3  and  C_19 
REMARK    5  A    between atoms: N_6  and  C_8 
REMARK       I    between atoms: N_6  and  C_19 
REMARK    6  A    between atoms: C_8  and  C_10 
REMARK    7  A    between atoms: C_8  and  C_11 
REMARK    8  A    between atoms: C_10  and  C_18 
ROOT
HETATM    1  C   LIG     1     -20.901 -15.600 -11.449  1.00  0.00     0.187 C 
ENDROOT
BRANCH   1   2
HETATM    2  N   LIG     1     -21.613 -16.352 -10.447  1.00  0.00    -0.323 N 
HETATM    3  C   LIG     1     -21.075 -16.709  -9.226  1.00  0.00     0.362 C 
HETATM    4  O   LIG     1     -19.942 -16.439  -8.838  1.00  0.00    -0.238 OA
HETATM    5  H   LIG     1     -22.564 -16.648 -10.649  1.00  0.00     0.165 HD
BRANCH   3   6
HETATM    6  O   LIG     1     -21.995 -17.414  -8.503  1.00  0.00    -0.294 OA
BRANCH   6   7
HETATM    7  C   LIG     1     -22.781 -16.651  -7.580  1.00  0.00     0.061 C 
HETATM    8  C   LIG     1     -22.941 -17.461  -6.293  1.00  0.00     0.046 C 
HETATM    9  C   LIG     1     -24.141 -16.403  -8.230  1.00  0.00     0.046 C 
HETATM   10  C   LIG     1     -22.066 -15.329  -7.306  1.00  0.00     0.046 C 
ENDBRANCH   6   7
ENDBRANCH   3   6
ENDBRANCH   1   2
BRANCH   1  11
HETATM   11  C   LIG     1     -20.108 -16.531 -12.375  1.00  0.00     0.045 C 
BRANCH  11  12
HETATM   12  C   LIG     1     -18.589 -16.335 -12.290  1.00  0.00     0.082 C 
HETATM   13  I   LIG     1     -17.978 -14.682 -13.513  1.00  0.00    -0.090 I 
ENDBRANCH  11  12
ENDBRANCH   1  11
BRANCH   1  14
HETATM   14  C   LIG     1     -21.811 -14.666 -12.235  1.00  0.00     0.282 C 
HETATM   15  O   LIG     1     -21.663 -14.449 -13.432  1.00  0.00    -0.263 OA
BRANCH  14  16
HETATM   16  O   LIG     1     -22.785 -14.121 -11.452  1.00  0.00    -0.310 OA
BRANCH  16  17
HETATM   17  C   LIG     1     -22.618 -12.738 -11.124  1.00  0.00     0.060 C 
HETATM   18  C   LIG     1     -23.013 -12.533  -9.663  1.00  0.00     0.045 C 
HETATM   19  C   LIG     1     -23.531 -11.933 -12.046  1.00  0.00     0.045 C 
HETATM   20  C   LIG     1     -21.155 -12.358 -11.352  1.00  0.00     0.045 C 
ENDBRANCH  16  17
ENDBRANCH  14  16
ENDBRANCH   1  14
TORSDOF 8
ENDMDL
MODEL 7
REMARK VINA RESULT:      -6.0      3.866      5.176
REMARK  8 active torsions:
REMARK  status: ('A' for Active; 'I' for Inactive)
REMARK    1  A    between atoms: O_2  and  C_7 
REMARK    2  A    between atoms: O_2  and  C_11 
REMARK    3  A    between atoms: O_3  and  C_9 
REMARK    4  A    between atoms: O_3  and  C_19 
REMARK    5  A    between atoms: N_6  and  C_8 
REMARK       I    between atoms: N_6  and  C_19 
REMARK    6  A    between atoms: C_8  and  C_10 
REMARK    7  A    between atoms: C_8  and  C_11 
REMARK    8  A    between atoms: C_10  and  C_18 
ROOT
HETATM    1  C   LIG     1     -21.705 -15.269 -14.187  1.00  0.00     0.187 C 
ENDROOT
BRANCH   1   2
HETATM    2  N   LIG     1     -22.258 -14.750 -12.962  1.00  0.00    -0.323 N 
HETATM    3  C   LIG     1     -21.565 -14.693 -11.768  1.00  0.00     0.362 C 
HETATM    4  O   LIG     1     -20.409 -15.068 -11.595  1.00  0.00    -0.238 OA
HETATM    5  H   LIG     1     -23.216 -14.414 -12.968  1.00  0.00     0.165 HD
BRANCH   3   6
HETATM    6  O   LIG     1     -22.359 -14.152 -10.797  1.00  0.00    -0.294 OA
BRANCH   6   7
HETATM    7  C   LIG     1     -22.033 -12.816 -10.396  1.00  0.00     0.061 C 
HETATM    8  C   LIG     1     -21.446 -12.861  -8.985  1.00  0.00     0.046 C 
HETATM    9  C   LIG     1     -23.326 -12.003 -10.413  1.00  0.00     0.046 C 
HETATM   10  C   LIG     1     -21.023 -12.242 -11.388  1.00  0.00     0.046 C 
ENDBRANCH   6   7
ENDBRANCH   3   6
ENDBRANCH   1   2
BRANCH   1  11
HETATM   11  C   LIG     1     -22.335 -16.621 -14.546  1.00  0.00     0.045 C 
BRANCH  11  12
HETATM   12  C   LIG     1     -23.610 -16.935 -13.754  1.00  0.00     0.082 C 
HETATM   13  I   LIG     1     -24.679 -18.555 -14.669  1.00  0.00    -0.090 I 
ENDBRANCH  11  12
ENDBRANCH   1  11
BRANCH   1  14
HETATM   14  C   LIG     1     -21.805 -14.279 -15.338  1.00  0.00     0.282 C 
HETATM   15  O   LIG     1     -21.063 -13.308 -15.444  1.00  0.00    -0.263 OA
BRANCH  14  16
HETATM   16  O   LIG     1     -22.797 -14.607 -16.213  1.00  0.00    -0.310 OA
BRANCH  16  17
HETATM   17  C   LIG     1     -23.894 -13.690 -16.281  1.00  0.00     0.060 C 
HETATM   18  C   LIG     1     -23.812 -12.743 -15.086  1.00  0.00     0.045 C 
HETATM   19  C   LIG     1     -25.182 -14.508 -16.232  1.00  0.00     0.045 C 
HETATM   20  C   LIG     1     -23.800 -12.917 -17.597  1.00  0.00     0.045 C 
ENDBRANCH  16  17
ENDBRANCH  14  16
ENDBRANCH   1  14
TORSDOF 8
ENDMDL
MODEL 8
REMARK VINA RESULT:      -6.0      3.604      5.003
REMARK  8 active torsions:
REMARK  status: ('A' for Active; 'I' for Inactive)
REMARK    1  A    between atoms: O_2  and  C_7 
REMARK    2  A    between atoms: O_2  and  C_11 
REMARK    3  A    between atoms: O_3  and  C_9 
REMARK    4  A    between atoms: O_3  and  C_19 
REMARK    5  A    between atoms: N_6  and  C_8 
REMARK       I    between atoms: N_6  and  C_19 
REMARK    6  A    between atoms: C_8  and  C_10 
REMARK    7  A    between atoms: C_8  and  C_11 
REMARK    8  A    between atoms: C_10  and  C_18 
ROOT
HETATM    1  C   LIG     1     -21.842 -13.272 -13.545  1.00  0.00     0.187 C 
ENDROOT
BRANCH   1   2
HETATM    2  N   LIG     1     -21.723 -13.812 -12.215  1.00  0.00    -0.323 N 
HETATM    3  C   LIG     1     -21.075 -13.169 -11.179  1.00  0.00     0.362 C 
HETATM    4  O   LIG     1     -20.526 -12.073 -11.250  1.00  0.00    -0.238 OA
HETATM    5  H   LIG     1     -22.129 -14.723 -12.025  1.00  0.00     0.165 HD
BRANCH   3   6
HETATM    6  O   LIG     1     -21.134 -13.935 -10.049  1.00  0.00    -0.294 OA
BRANCH   6   7
HETATM    7  C   LIG     1     -22.116 -13.546  -9.081  1.00  0.00     0.061 C 
HETATM    8  C   LIG     1     -23.066 -12.540  -9.730  1.00  0.00     0.046 C 
HETATM    9  C   LIG     1     -21.378 -12.906  -7.908  1.00  0.00     0.046 C 
HETATM   10  C   LIG     1     -22.871 -14.794  -8.626  1.00  0.00     0.046 C 
ENDBRANCH   6   7
ENDBRANCH   3   6
ENDBRANCH   1   2
BRANCH   1  11
HETATM   11  C   LIG     1     -20.533 -13.439 -14.327  1.00  0.00     0.045 C 
BRANCH  11  12
HETATM   12  C   LIG     1     -19.878 -14.814 -14.144  1.00  0.00     0.082 C 
HETATM   13  I   LIG     1     -17.839 -14.594 -13.515  1.00  0.00    -0.090 I 
ENDBRANCH  11  12
ENDBRANCH   1  11
BRANCH   1  14
HETATM   14  C   LIG     1     -23.028 -13.848 -14.306  1.00  0.00     0.282 C 
HETATM   15  O   LIG     1     -23.378 -15.019 -14.201  1.00  0.00    -0.263 OA
BRANCH  14  16
HETATM   16  O   LIG     1     -23.635 -12.915 -15.093  1.00  0.00    -0.310 OA
BRANCH  16  17
HETATM   17  C   LIG     1     -23.926 -13.327 -16.432  1.00  0.00     0.060 C 
HETATM   18  C   LIG     1     -22.703 -14.045 -16.999  1.00  0.00     0.045 C 
HETATM   19  C   LIG     1     -24.234 -12.070 -17.243  1.00  0.00     0.045 C 
HETATM   20  C   LIG     1     -25.139 -14.256 -16.402  1.00  0.00     0.045 C 
ENDBRANCH  16  17
ENDBRANCH  14  16
ENDBRANCH   1  14
TORSDOF 8
ENDMDL
MODEL 9
REMARK VINA RESULT:      -6.0      2.988      5.895
REMARK  8 active torsions:
REMARK  status: ('A' for Active; 'I' for Inactive)
REMARK    1  A    between atoms: O_2  and  C_7 
REMARK    2  A    between atoms: O_2  and  C_11 
REMARK    3  A    between atoms: O_3  and  C_9 
REMARK    4  A    between atoms: O_3  and  C_19 
REMARK    5  A    between atoms: N_6  and  C_8 
REMARK       I    between atoms: N_6  and  C_19 
REMARK    6  A    between atoms: C_8  and  C_10 
REMARK    7  A    between atoms: C_8  and  C_11 
REMARK    8  A    between atoms: C_10  and  C_18 
ROOT
HETATM    1  C   LIG     1     -20.989 -14.704 -12.121  1.00  0.00     0.187 C 
ENDROOT
BRANCH   1   2
HETATM    2  N   LIG     1     -22.015 -14.029 -12.873  1.00  0.00    -0.323 N 
HETATM    3  C   LIG     1     -21.803 -13.434 -14.102  1.00  0.00     0.362 C 
HETATM    4  O   LIG     1     -20.735 -13.401 -14.705  1.00  0.00    -0.238 OA
HETATM    5  H   LIG     1     -22.949 -13.976 -12.478  1.00  0.00     0.165 HD
BRANCH   3   6
HETATM    6  O   LIG     1     -22.967 -12.880 -14.556  1.00  0.00    -0.294 OA
BRANCH   6   7
HETATM    7  C   LIG     1     -23.602 -13.564 -15.642  1.00  0.00     0.061 C 
HETATM    8  C   LIG     1     -23.711 -15.047 -15.286  1.00  0.00     0.046 C 
HETATM    9  C   LIG     1     -22.728 -13.373 -16.879  1.00  0.00     0.046 C 
HETATM   10  C   LIG     1     -24.985 -12.953 -15.861  1.00  0.00     0.046 C 
ENDBRANCH   6   7
ENDBRANCH   3   6
ENDBRANCH   1   2
BRANCH   1  11
HETATM   11  C   LIG     1     -21.092 -14.370 -10.627  1.00  0.00     0.045 C 
BRANCH  11  12
HETATM   12  C   LIG     1     -22.525 -14.101 -10.155  1.00  0.00     0.082 C 
HETATM   13  I   LIG     1     -23.075 -15.484  -8.609  1.00  0.00    -0.090 I 
ENDBRANCH  11  12
ENDBRANCH   1  11
BRANCH   1  14
HETATM   14  C   LIG     1     -20.980 -16.207 -12.362  1.00  0.00     0.282 C 
HETATM   15  O   LIG     1     -21.426 -16.717 -13.384  1.00  0.00    -0.263 OA
BRANCH  14  16
HETATM   16  O   LIG     1     -20.422 -16.890 -11.323  1.00  0.00    -0.310 OA
BRANCH  16  17
HETATM   17  C   LIG     1     -19.080 -17.342 -11.524  1.00  0.00     0.060 C 
HETATM   18  C   LIG     1     -18.343 -16.313 -12.380  1.00  0.00     0.045 C 
HETATM   19  C   LIG     1     -19.151 -18.687 -12.244  1.00  0.00     0.045 C 
HETATM   20  C   LIG     1     -18.409 -17.498 -10.160  1.00  0.00     0.045 C 
ENDBRANCH  16  17
ENDBRANCH  14  16
ENDBRANCH   1  14
TORSDOF 8
ENDMDL
