MODEL 1
REMARK VINA RESULT:      -8.9      0.000      0.000
REMARK  1 active torsions:
REMARK  status: ('A' for Active; 'I' for Inactive)
REMARK    1  A    between atoms: C_7  and  C_21 
ROOT
HETATM    1  O   LIG     1     -21.532 -14.195  -6.734  1.00  0.00    -0.291 OA
HETATM    2  C   LIG     1     -23.229 -14.951 -14.146  1.00  0.00     0.000 C 
HETATM    3  C   LIG     1     -23.205 -13.673 -15.012  1.00  0.00     0.006 C 
HETATM    4  C   LIG     1     -22.175 -14.939 -13.035  1.00  0.00     0.001 C 
HETATM    5  C   LIG     1     -22.437 -13.714 -12.104  1.00  0.00     0.004 C 
HETATM    6  C   LIG     1     -21.426 -13.634 -10.897  1.00  0.00     0.016 C 
HETATM    7  C   LIG     1     -24.310 -14.038 -16.027  1.00  0.00     0.058 C 
HETATM    8  C   LIG     1     -23.537 -12.485 -14.099  1.00  0.00     0.000 C 
HETATM    9  C   LIG     1     -22.562 -12.392 -12.911  1.00  0.00     0.000 C 
HETATM   10  C   LIG     1     -23.208 -16.075 -15.177  1.00  0.00     0.000 C 
HETATM   11  C   LIG     1     -22.208 -16.237 -12.217  1.00  0.00     0.004 C 
HETATM   12  C   LIG     1     -24.070 -15.531 -16.330  1.00  0.00     0.007 C 
HETATM   13  C   LIG     1     -21.350 -14.999 -10.202  1.00  0.00    -0.042 C 
HETATM   14  C   LIG     1     -21.851 -13.423 -15.727  1.00  0.00     0.000 C 
HETATM   15  C   LIG     1     -21.180 -16.206 -11.094  1.00  0.00     0.022 C 
HETATM   16  C   LIG     1     -21.941 -12.556  -9.899  1.00  0.00     0.012 C 
HETATM   17  C   LIG     1     -20.003 -13.248 -11.360  1.00  0.00     0.004 C 
HETATM   18  C   LIG     1     -21.285 -12.631  -8.529  1.00  0.00     0.070 C 
HETATM   19  C   LIG     1     -21.401 -15.167  -8.869  1.00  0.00     0.029 C 
HETATM   20  C   LIG     1     -21.443 -14.010  -7.946  1.00  0.00     0.172 C 
ENDROOT
BRANCH   7  21
HETATM   21  C   LIG     1     -24.314 -13.198 -17.267  1.00  0.00     0.151 C 
HETATM   22  O   LIG     1     -24.636 -12.011 -17.240  1.00  0.00    -0.296 OA
HETATM   23  C   LIG     1     -23.903 -13.877 -18.545  1.00  0.00     0.072 C 
ENDBRANCH   7  21
TORSDOF 1
ENDMDL
