MODEL 1
REMARK VINA RESULT:      -7.1      0.000      0.000
REMARK  4 active torsions:
REMARK  status: ('A' for Active; 'I' for Inactive)
REMARK    1  A    between atoms: C_4  and  C_6 
REMARK    2  A    between atoms: C_5  and  C_14 
REMARK    3  A    between atoms: C_7  and  N_16 
REMARK    4  A    between atoms: C_10  and  N_19 
ROOT
HETATM    1  N   LIG     1     -25.039 -17.679  -9.869  1.00  0.00    -0.066 NA
HETATM    2  N   LIG     1     -23.400 -17.591 -11.634  1.00  0.00    -0.045 NA
HETATM    3  C   LIG     1     -23.178 -16.158  -9.711  1.00  0.00     0.048 A 
HETATM    4  C   LIG     1     -24.340 -16.723  -9.223  1.00  0.00     0.080 A 
HETATM    5  C   LIG     1     -22.751 -16.637 -10.933  1.00  0.00     0.153 A 
HETATM    6  C   LIG     1     -24.520 -18.061 -11.052  1.00  0.00     0.722 A 
ENDROOT
BRANCH   3   7
HETATM    7  C   LIG     1     -22.462 -15.134  -8.980  1.00  0.00     0.004 A 
HETATM    8  C   LIG     1     -21.551 -15.493  -7.987  1.00  0.00     0.001 A 
HETATM    9  C   LIG     1     -20.862 -14.507  -7.283  1.00  0.00     0.011 A 
HETATM   10  C   LIG     1     -21.085 -13.160  -7.571  1.00  0.00     0.058 A 
HETATM   11 CL   LIG     1     -20.237 -11.942  -6.700  1.00  0.00    -0.082 Cl
HETATM   12  C   LIG     1     -21.996 -12.801  -8.563  1.00  0.00     0.011 A 
HETATM   13  C   LIG     1     -22.686 -13.788  -9.268  1.00  0.00     0.001 A 
ENDBRANCH   3   7
BRANCH   5  14
HETATM   14  N   LIG     1     -21.564 -16.106 -11.498  1.00  0.00    -0.383 N 
HETATM   15  H   LIG     1     -21.014 -16.740 -12.064  1.00  0.00     0.157 HD
HETATM   16  H   LIG     1     -21.535 -15.124 -11.739  1.00  0.00     0.157 HD
ENDBRANCH   5  14
BRANCH   4  17
HETATM   17  C   LIG     1     -24.911 -16.293  -7.910  1.00  0.00     0.047 C 
HETATM   18  C   LIG     1     -24.403 -17.152  -6.755  1.00  0.00     0.007 C 
ENDBRANCH   4  17
BRANCH   6  19
HETATM   19  N   LIG     1     -25.224 -19.060 -11.756  1.00  0.00    -0.231 N 
HETATM   20  H   LIG     1     -25.691 -19.796 -11.243  1.00  0.00     0.174 HD
HETATM   21  H   LIG     1     -25.254 -19.029 -12.766  1.00  0.00     0.174 HD
ENDBRANCH   6  19
TORSDOF 4
ENDMDL
