MODEL 1
REMARK VINA RESULT:      -8.8      0.000      0.000
REMARK  1 active torsions:
REMARK  status: ('A' for Active; 'I' for Inactive)
REMARK    1  A    between atoms: C_7  and  C_21 
ROOT
HETATM    1  O   LIG     1     -21.581 -14.526  -6.700  1.00  0.00    -0.291 OA
HETATM    2  C   LIG     1     -23.237 -14.956 -14.148  1.00  0.00     0.000 C 
HETATM    3  C   LIG     1     -23.220 -13.640 -14.954  1.00  0.00     0.006 C 
HETATM    4  C   LIG     1     -22.188 -14.987 -13.032  1.00  0.00     0.001 C 
HETATM    5  C   LIG     1     -22.465 -13.807 -12.047  1.00  0.00     0.004 C 
HETATM    6  C   LIG     1     -21.460 -13.774 -10.832  1.00  0.00     0.016 C 
HETATM    7  C   LIG     1     -24.317 -13.967 -15.990  1.00  0.00     0.058 C 
HETATM    8  C   LIG     1     -23.566 -12.497 -13.989  1.00  0.00     0.000 C 
HETATM    9  C   LIG     1     -22.597 -12.451 -12.793  1.00  0.00     0.000 C 
HETATM   10  C   LIG     1     -23.202 -16.032 -15.228  1.00  0.00     0.000 C 
HETATM   11  C   LIG     1     -22.215 -16.320 -12.274  1.00  0.00     0.004 C 
HETATM   12  C   LIG     1     -24.064 -15.443 -16.360  1.00  0.00     0.007 C 
HETATM   13  C   LIG     1     -21.376 -15.169 -10.200  1.00  0.00    -0.042 C 
HETATM   14  C   LIG     1     -21.865 -13.346 -15.650  1.00  0.00     0.000 C 
HETATM   15  C   LIG     1     -21.192 -16.333 -11.145  1.00  0.00     0.022 C 
HETATM   16  C   LIG     1     -21.989 -12.748  -9.789  1.00  0.00     0.012 C 
HETATM   17  C   LIG     1     -20.038 -13.356 -11.270  1.00  0.00     0.004 C 
HETATM   18  C   LIG     1     -21.338 -12.879  -8.421  1.00  0.00     0.070 C 
HETATM   19  C   LIG     1     -21.432 -15.398  -8.876  1.00  0.00     0.029 C 
HETATM   20  C   LIG     1     -21.487 -14.285  -7.902  1.00  0.00     0.172 C 
ENDROOT
BRANCH   7  21
HETATM   21  C   LIG     1     -24.322 -13.071 -17.190  1.00  0.00     0.151 C 
HETATM   22  O   LIG     1     -24.613 -11.879 -17.104  1.00  0.00    -0.296 OA
HETATM   23  C   LIG     1     -23.952 -13.701 -18.505  1.00  0.00     0.072 C 
ENDBRANCH   7  21
TORSDOF 1
ENDMDL
