MODEL 1
REMARK VINA RESULT:      -8.2      0.000      0.000
REMARK  14 active torsions:
REMARK  status: ('A' for Active; 'I' for Inactive)
REMARK    1  A    between atoms: O_1  and  C_14 
REMARK    2  A    between atoms: O_1  and  C_21 
REMARK    3  A    between atoms: O_4  and  C_17 
REMARK    4  A    between atoms: O_4  and  C_22 
REMARK    5  A    between atoms: N_6  and  C_8 
REMARK       I    between atoms: N_6  and  C_12 
REMARK    6  A    between atoms: N_7  and  C_10 
REMARK    7  A    between atoms: C_8  and  C_9 
REMARK    8  A    between atoms: C_8  and  C_14 
REMARK    9  A    between atoms: C_9  and  C_11 
REMARK   10  A    between atoms: C_10  and  C_12 
REMARK   11  A    between atoms: C_10  and  C_13 
REMARK   12  A    between atoms: C_13  and  C_17 
REMARK   13  A    between atoms: C_21  and  C_23 
REMARK   14  A    between atoms: C_22  and  C_24 
ROOT
HETATM    1  O   LIG     1     -22.617 -16.527 -13.399  1.00  0.00    -0.271 OA
HETATM    2  N   LIG     1     -20.909 -16.260 -11.849  1.00  0.00    -0.345 N 
HETATM    3  C   LIG     1     -21.426 -16.577 -13.097  1.00  0.00     0.252 C 
HETATM    4  H   LIG     1     -19.910 -16.348 -11.687  1.00  0.00     0.163 HD
ENDROOT
BRANCH   2   5
HETATM    5  C   LIG     1     -21.727 -15.825 -10.740  1.00  0.00     0.188 C 
BRANCH   5   6
HETATM    6  C   LIG     1     -21.230 -16.419  -9.413  1.00  0.00     0.074 C 
BRANCH   6   7
HETATM    7  C   LIG     1     -22.314 -16.682  -8.392  1.00  0.00    -0.056 A 
HETATM    8  C   LIG     1     -23.623 -16.271  -8.644  1.00  0.00     0.007 A 
HETATM    9  C   LIG     1     -24.623 -16.513  -7.702  1.00  0.00     0.001 A 
HETATM   10  C   LIG     1     -24.313 -17.164  -6.508  1.00  0.00     0.000 A 
HETATM   11  C   LIG     1     -23.004 -17.575  -6.257  1.00  0.00     0.001 A 
HETATM   12  C   LIG     1     -22.005 -17.333  -7.199  1.00  0.00     0.007 A 
ENDBRANCH   6   7
ENDBRANCH   5   6
BRANCH   5  13
HETATM   13  C   LIG     1     -21.855 -14.309 -10.673  1.00  0.00     0.282 C 
HETATM   14  O   LIG     1     -22.681 -13.685 -11.331  1.00  0.00    -0.263 OA
BRANCH  13  15
HETATM   15  O   LIG     1     -20.944 -13.753  -9.825  1.00  0.00    -0.316 OA
BRANCH  15  16
HETATM   16  C   LIG     1     -21.462 -12.788  -8.903  1.00  0.00     0.205 C 
BRANCH  16  17
HETATM   17  C   LIG     1     -21.220 -13.275  -7.513  1.00  0.00    -0.011 C 
HETATM   18  C   LIG     1     -20.940 -12.475  -6.479  1.00  0.00     0.009 C 
ENDBRANCH  16  17
ENDBRANCH  15  16
ENDBRANCH  13  15
ENDBRANCH   5  13
ENDBRANCH   2   5
BRANCH   3  19
HETATM   19  C   LIG     1     -20.344 -17.036 -14.071  1.00  0.00     0.318 C 
BRANCH  19  20
HETATM   20  N   LIG     1     -20.158 -15.957 -15.041  1.00  0.00     0.092 N 
HETATM   21  H   LIG     1     -21.029 -15.796 -15.545  1.00  0.00     0.313 HD
HETATM   22  H   LIG     1     -19.952 -15.088 -14.549  1.00  0.00     0.313 HD
ENDBRANCH  19  20
BRANCH  19  23
HETATM   23  C   LIG     1     -19.036 -17.292 -13.320  1.00  0.00     0.156 C 
BRANCH  23  24
HETATM   24  C   LIG     1     -19.057 -18.642 -12.643  1.00  0.00     0.261 C 
HETATM   25  O   LIG     1     -19.124 -18.794 -11.429  1.00  0.00    -0.265 OA
BRANCH  24  26
HETATM   26  O   LIG     1     -19.023 -19.634 -13.577  1.00  0.00    -0.318 OA
BRANCH  26  27
HETATM   27  C   LIG     1     -19.746 -20.822 -13.242  1.00  0.00     0.205 C 
BRANCH  27  28
HETATM   28  C   LIG     1     -20.432 -21.329 -14.467  1.00  0.00    -0.011 C 
HETATM   29  C   LIG     1     -21.757 -21.307 -14.645  1.00  0.00     0.009 C 
ENDBRANCH  27  28
ENDBRANCH  26  27
ENDBRANCH  24  26
ENDBRANCH  23  24
ENDBRANCH  19  23
ENDBRANCH   3  19
TORSDOF 14
ENDMDL
MODEL 2
REMARK VINA RESULT:      -8.2      2.847      6.145
REMARK  14 active torsions:
REMARK  status: ('A' for Active; 'I' for Inactive)
REMARK    1  A    between atoms: O_1  and  C_14 
REMARK    2  A    between atoms: O_1  and  C_21 
REMARK    3  A    between atoms: O_4  and  C_17 
REMARK    4  A    between atoms: O_4  and  C_22 
REMARK    5  A    between atoms: N_6  and  C_8 
REMARK       I    between atoms: N_6  and  C_12 
REMARK    6  A    between atoms: N_7  and  C_10 
REMARK    7  A    between atoms: C_8  and  C_9 
REMARK    8  A    between atoms: C_8  and  C_14 
REMARK    9  A    between atoms: C_9  and  C_11 
REMARK   10  A    between atoms: C_10  and  C_12 
REMARK   11  A    between atoms: C_10  and  C_13 
REMARK   12  A    between atoms: C_13  and  C_17 
REMARK   13  A    between atoms: C_21  and  C_23 
REMARK   14  A    between atoms: C_22  and  C_24 
ROOT
HETATM    1  O   LIG     1     -21.170 -17.005 -14.197  1.00  0.00    -0.271 OA
HETATM    2  N   LIG     1     -20.306 -16.055 -12.264  1.00  0.00    -0.345 N 
HETATM    3  C   LIG     1     -20.829 -16.018 -13.549  1.00  0.00     0.252 C 
HETATM    4  H   LIG     1     -20.036 -15.185 -11.811  1.00  0.00     0.163 HD
ENDROOT
BRANCH   2   5
HETATM    5  C   LIG     1     -20.101 -17.280 -11.526  1.00  0.00     0.188 C 
BRANCH   5   6
HETATM    6  C   LIG     1     -18.889 -18.057 -12.063  1.00  0.00     0.074 C 
BRANCH   6   7
HETATM    7  C   LIG     1     -19.170 -19.499 -12.420  1.00  0.00    -0.056 A 
HETATM    8  C   LIG     1     -19.097 -20.488 -11.438  1.00  0.00     0.007 A 
HETATM    9  C   LIG     1     -19.356 -21.818 -11.768  1.00  0.00     0.001 A 
HETATM   10  C   LIG     1     -19.688 -22.160 -13.079  1.00  0.00     0.000 A 
HETATM   11  C   LIG     1     -19.761 -21.171 -14.060  1.00  0.00     0.001 A 
HETATM   12  C   LIG     1     -19.502 -19.841 -13.730  1.00  0.00     0.007 A 
ENDBRANCH   6   7
ENDBRANCH   5   6
BRANCH   5  13
HETATM   13  C   LIG     1     -20.008 -17.045 -10.024  1.00  0.00     0.282 C 
HETATM   14  O   LIG     1     -18.939 -16.878  -9.445  1.00  0.00    -0.263 OA
BRANCH  13  15
HETATM   15  O   LIG     1     -21.232 -17.062  -9.424  1.00  0.00    -0.316 OA
BRANCH  15  16
HETATM   16  C   LIG     1     -21.244 -16.746  -8.029  1.00  0.00     0.205 C 
BRANCH  16  17
HETATM   17  C   LIG     1     -21.978 -17.822  -7.300  1.00  0.00    -0.011 C 
HETATM   18  C   LIG     1     -22.919 -17.594  -6.379  1.00  0.00     0.009 C 
ENDBRANCH  16  17
ENDBRANCH  15  16
ENDBRANCH  13  15
ENDBRANCH   5  13
ENDBRANCH   2   5
BRANCH   3  19
HETATM   19  C   LIG     1     -20.909 -14.597 -14.099  1.00  0.00     0.318 C 
BRANCH  19  20
HETATM   20  N   LIG     1     -20.882 -14.703 -15.559  1.00  0.00     0.092 N 
HETATM   21  H   LIG     1     -20.717 -15.672 -15.828  1.00  0.00     0.313 HD
HETATM   22  H   LIG     1     -21.797 -14.457 -15.935  1.00  0.00     0.313 HD
ENDBRANCH  19  20
BRANCH  19  23
HETATM   23  C   LIG     1     -22.210 -13.932 -13.649  1.00  0.00     0.156 C 
BRANCH  23  24
HETATM   24  C   LIG     1     -23.278 -14.059 -14.710  1.00  0.00     0.261 C 
HETATM   25  O   LIG     1     -23.904 -15.090 -14.925  1.00  0.00    -0.265 OA
BRANCH  24  26
HETATM   26  O   LIG     1     -23.448 -12.867 -15.347  1.00  0.00    -0.318 OA
BRANCH  26  27
HETATM   27  C   LIG     1     -24.594 -12.780 -16.198  1.00  0.00     0.205 C 
BRANCH  27  28
HETATM   28  C   LIG     1     -24.139 -12.774 -17.620  1.00  0.00    -0.011 C 
HETATM   29  C   LIG     1     -23.760 -13.868 -18.288  1.00  0.00     0.009 C 
ENDBRANCH  27  28
ENDBRANCH  26  27
ENDBRANCH  24  26
ENDBRANCH  23  24
ENDBRANCH  19  23
ENDBRANCH   3  19
TORSDOF 14
ENDMDL
MODEL 3
REMARK VINA RESULT:      -8.1      1.814      6.048
REMARK  14 active torsions:
REMARK  status: ('A' for Active; 'I' for Inactive)
REMARK    1  A    between atoms: O_1  and  C_14 
REMARK    2  A    between atoms: O_1  and  C_21 
REMARK    3  A    between atoms: O_4  and  C_17 
REMARK    4  A    between atoms: O_4  and  C_22 
REMARK    5  A    between atoms: N_6  and  C_8 
REMARK       I    between atoms: N_6  and  C_12 
REMARK    6  A    between atoms: N_7  and  C_10 
REMARK    7  A    between atoms: C_8  and  C_9 
REMARK    8  A    between atoms: C_8  and  C_14 
REMARK    9  A    between atoms: C_9  and  C_11 
REMARK   10  A    between atoms: C_10  and  C_12 
REMARK   11  A    between atoms: C_10  and  C_13 
REMARK   12  A    between atoms: C_13  and  C_17 
REMARK   13  A    between atoms: C_21  and  C_23 
REMARK   14  A    between atoms: C_22  and  C_24 
ROOT
HETATM    1  O   LIG     1     -21.005 -16.106 -13.457  1.00  0.00    -0.271 OA
HETATM    2  N   LIG     1     -19.449 -15.919 -11.744  1.00  0.00    -0.345 N 
HETATM    3  C   LIG     1     -20.069 -15.517 -12.919  1.00  0.00     0.252 C 
HETATM    4  H   LIG     1     -18.670 -15.376 -11.382  1.00  0.00     0.163 HD
ENDROOT
BRANCH   2   5
HETATM    5  C   LIG     1     -19.841 -17.096 -11.004  1.00  0.00     0.188 C 
BRANCH   5   6
HETATM    6  C   LIG     1     -18.744 -18.170 -11.042  1.00  0.00     0.074 C 
BRANCH   6   7
HETATM    7  C   LIG     1     -19.087 -19.395 -11.859  1.00  0.00    -0.056 A 
HETATM    8  C   LIG     1     -19.146 -20.648 -11.247  1.00  0.00     0.007 A 
HETATM    9  C   LIG     1     -19.462 -21.778 -12.001  1.00  0.00     0.001 A 
HETATM   10  C   LIG     1     -19.718 -21.656 -13.366  1.00  0.00     0.000 A 
HETATM   11  C   LIG     1     -19.660 -20.404 -13.978  1.00  0.00     0.001 A 
HETATM   12  C   LIG     1     -19.344 -19.274 -13.224  1.00  0.00     0.007 A 
ENDBRANCH   6   7
ENDBRANCH   5   6
BRANCH   5  13
HETATM   13  C   LIG     1     -20.269 -16.769  -9.578  1.00  0.00     0.282 C 
HETATM   14  O   LIG     1     -19.492 -16.325  -8.739  1.00  0.00    -0.263 OA
BRANCH  13  15
HETATM   15  O   LIG     1     -21.586 -17.044  -9.361  1.00  0.00    -0.316 OA
BRANCH  15  16
HETATM   16  C   LIG     1     -21.885 -17.725  -8.138  1.00  0.00     0.205 C 
BRANCH  16  17
HETATM   17  C   LIG     1     -23.018 -17.026  -7.465  1.00  0.00    -0.011 C 
HETATM   18  C   LIG     1     -24.175 -16.728  -8.065  1.00  0.00     0.009 C 
ENDBRANCH  16  17
ENDBRANCH  15  16
ENDBRANCH  13  15
ENDBRANCH   5  13
ENDBRANCH   2   5
BRANCH   3  19
HETATM   19  C   LIG     1     -19.435 -14.259 -13.506  1.00  0.00     0.318 C 
BRANCH  19  20
HETATM   20  N   LIG     1     -20.198 -13.918 -14.707  1.00  0.00     0.092 N 
HETATM   21  H   LIG     1     -20.887 -14.645 -14.893  1.00  0.00     0.313 HD
HETATM   22  H   LIG     1     -20.727 -13.062 -14.542  1.00  0.00     0.313 HD
ENDBRANCH  19  20
BRANCH  19  23
HETATM   23  C   LIG     1     -19.512 -13.113 -12.497  1.00  0.00     0.156 C 
BRANCH  23  24
HETATM   24  C   LIG     1     -20.909 -12.974 -11.941  1.00  0.00     0.261 C 
HETATM   25  O   LIG     1     -21.881 -12.653 -12.613  1.00  0.00    -0.265 OA
BRANCH  24  26
HETATM   26  O   LIG     1     -20.917 -13.288 -10.614  1.00  0.00    -0.318 OA
BRANCH  26  27
HETATM   27  C   LIG     1     -22.201 -13.582 -10.058  1.00  0.00     0.205 C 
BRANCH  27  28
HETATM   28  C   LIG     1     -22.078 -13.647  -8.572  1.00  0.00    -0.011 C 
HETATM   29  C   LIG     1     -21.038 -13.161  -7.886  1.00  0.00     0.009 C 
ENDBRANCH  27  28
ENDBRANCH  26  27
ENDBRANCH  24  26
ENDBRANCH  23  24
ENDBRANCH  19  23
ENDBRANCH   3  19
TORSDOF 14
ENDMDL
MODEL 4
REMARK VINA RESULT:      -8.0      1.248      2.082
REMARK  14 active torsions:
REMARK  status: ('A' for Active; 'I' for Inactive)
REMARK    1  A    between atoms: O_1  and  C_14 
REMARK    2  A    between atoms: O_1  and  C_21 
REMARK    3  A    between atoms: O_4  and  C_17 
REMARK    4  A    between atoms: O_4  and  C_22 
REMARK    5  A    between atoms: N_6  and  C_8 
REMARK       I    between atoms: N_6  and  C_12 
REMARK    6  A    between atoms: N_7  and  C_10 
REMARK    7  A    between atoms: C_8  and  C_9 
REMARK    8  A    between atoms: C_8  and  C_14 
REMARK    9  A    between atoms: C_9  and  C_11 
REMARK   10  A    between atoms: C_10  and  C_12 
REMARK   11  A    between atoms: C_10  and  C_13 
REMARK   12  A    between atoms: C_13  and  C_17 
REMARK   13  A    between atoms: C_21  and  C_23 
REMARK   14  A    between atoms: C_22  and  C_24 
ROOT
HETATM    1  O   LIG     1     -22.682 -16.422 -13.097  1.00  0.00    -0.271 OA
HETATM    2  N   LIG     1     -20.828 -16.109 -11.736  1.00  0.00    -0.345 N 
HETATM    3  C   LIG     1     -21.475 -16.525 -12.891  1.00  0.00     0.252 C 
HETATM    4  H   LIG     1     -19.825 -16.252 -11.648  1.00  0.00     0.163 HD
ENDROOT
BRANCH   2   5
HETATM    5  C   LIG     1     -21.513 -15.494 -10.622  1.00  0.00     0.188 C 
BRANCH   5   6
HETATM    6  C   LIG     1     -21.092 -16.130  -9.288  1.00  0.00     0.074 C 
BRANCH   6   7
HETATM    7  C   LIG     1     -22.237 -16.476  -8.364  1.00  0.00    -0.056 A 
HETATM    8  C   LIG     1     -23.542 -16.118  -8.704  1.00  0.00     0.007 A 
HETATM    9  C   LIG     1     -24.598 -16.436  -7.851  1.00  0.00     0.001 A 
HETATM   10  C   LIG     1     -24.350 -17.112  -6.657  1.00  0.00     0.000 A 
HETATM   11  C   LIG     1     -23.045 -17.471  -6.316  1.00  0.00     0.001 A 
HETATM   12  C   LIG     1     -21.989 -17.152  -7.170  1.00  0.00     0.007 A 
ENDBRANCH   6   7
ENDBRANCH   5   6
BRANCH   5  13
HETATM   13  C   LIG     1     -21.352 -13.979 -10.607  1.00  0.00     0.282 C 
HETATM   14  O   LIG     1     -22.149 -13.235 -10.044  1.00  0.00    -0.263 OA
BRANCH  13  15
HETATM   15  O   LIG     1     -20.250 -13.572 -11.298  1.00  0.00    -0.316 OA
BRANCH  15  16
HETATM   16  C   LIG     1     -20.504 -12.935 -12.554  1.00  0.00     0.205 C 
BRANCH  16  17
HETATM   17  C   LIG     1     -19.334 -13.160 -13.451  1.00  0.00    -0.011 C 
HETATM   18  C   LIG     1     -18.278 -13.914 -13.128  1.00  0.00     0.009 C 
ENDBRANCH  16  17
ENDBRANCH  15  16
ENDBRANCH  13  15
ENDBRANCH   5  13
ENDBRANCH   2   5
BRANCH   3  19
HETATM   19  C   LIG     1     -20.516 -17.168 -13.890  1.00  0.00     0.318 C 
BRANCH  19  20
HETATM   20  N   LIG     1     -20.378 -16.236 -15.009  1.00  0.00     0.092 N 
HETATM   21  H   LIG     1     -19.476 -16.375 -15.461  1.00  0.00     0.313 HD
HETATM   22  H   LIG     1     -21.083 -16.445 -15.715  1.00  0.00     0.313 HD
ENDBRANCH  19  20
BRANCH  19  23
HETATM   23  C   LIG     1     -19.154 -17.401 -13.235  1.00  0.00     0.156 C 
BRANCH  23  24
HETATM   24  C   LIG     1     -19.105 -18.747 -12.553  1.00  0.00     0.261 C 
HETATM   25  O   LIG     1     -19.148 -18.898 -11.339  1.00  0.00    -0.265 OA
BRANCH  24  26
HETATM   26  O   LIG     1     -19.039 -19.740 -13.485  1.00  0.00    -0.318 OA
BRANCH  26  27
HETATM   27  C   LIG     1     -19.828 -20.901 -13.207  1.00  0.00     0.205 C 
BRANCH  27  28
HETATM   28  C   LIG     1     -20.486 -21.349 -14.469  1.00  0.00    -0.011 C 
HETATM   29  C   LIG     1     -21.803 -21.285 -14.689  1.00  0.00     0.009 C 
ENDBRANCH  27  28
ENDBRANCH  26  27
ENDBRANCH  24  26
ENDBRANCH  23  24
ENDBRANCH  19  23
ENDBRANCH   3  19
TORSDOF 14
ENDMDL
MODEL 5
REMARK VINA RESULT:      -8.0      2.715      5.662
REMARK  14 active torsions:
REMARK  status: ('A' for Active; 'I' for Inactive)
REMARK    1  A    between atoms: O_1  and  C_14 
REMARK    2  A    between atoms: O_1  and  C_21 
REMARK    3  A    between atoms: O_4  and  C_17 
REMARK    4  A    between atoms: O_4  and  C_22 
REMARK    5  A    between atoms: N_6  and  C_8 
REMARK       I    between atoms: N_6  and  C_12 
REMARK    6  A    between atoms: N_7  and  C_10 
REMARK    7  A    between atoms: C_8  and  C_9 
REMARK    8  A    between atoms: C_8  and  C_14 
REMARK    9  A    between atoms: C_9  and  C_11 
REMARK   10  A    between atoms: C_10  and  C_12 
REMARK   11  A    between atoms: C_10  and  C_13 
REMARK   12  A    between atoms: C_13  and  C_17 
REMARK   13  A    between atoms: C_21  and  C_23 
REMARK   14  A    between atoms: C_22  and  C_24 
ROOT
HETATM    1  O   LIG     1     -21.819 -13.119  -9.198  1.00  0.00    -0.271 OA
HETATM    2  N   LIG     1     -21.069 -14.435 -10.957  1.00  0.00    -0.345 N 
HETATM    3  C   LIG     1     -21.531 -13.258 -10.385  1.00  0.00     0.252 C 
HETATM    4  H   LIG     1     -20.872 -14.460 -11.954  1.00  0.00     0.163 HD
ENDROOT
BRANCH   2   5
HETATM    5  C   LIG     1     -20.870 -15.655 -10.209  1.00  0.00     0.188 C 
BRANCH   5   6
HETATM    6  C   LIG     1     -22.142 -16.516 -10.196  1.00  0.00     0.074 C 
BRANCH   6   7
HETATM    7  C   LIG     1     -22.710 -16.786  -8.822  1.00  0.00    -0.056 A 
HETATM    8  C   LIG     1     -24.022 -16.415  -8.524  1.00  0.00     0.007 A 
HETATM    9  C   LIG     1     -24.545 -16.663  -7.255  1.00  0.00     0.001 A 
HETATM   10  C   LIG     1     -23.758 -17.281  -6.284  1.00  0.00     0.000 A 
HETATM   11  C   LIG     1     -22.447 -17.652  -6.581  1.00  0.00     0.001 A 
HETATM   12  C   LIG     1     -21.923 -17.404  -7.850  1.00  0.00     0.007 A 
ENDBRANCH   6   7
ENDBRANCH   5   6
BRANCH   5  13
HETATM   13  C   LIG     1     -19.655 -16.439 -10.689  1.00  0.00     0.282 C 
HETATM   14  O   LIG     1     -19.003 -17.167  -9.949  1.00  0.00    -0.263 OA
BRANCH  13  15
HETATM   15  O   LIG     1     -19.387 -16.215 -12.007  1.00  0.00    -0.316 OA
BRANCH  15  16
HETATM   16  C   LIG     1     -19.963 -17.149 -12.925  1.00  0.00     0.205 C 
BRANCH  16  17
HETATM   17  C   LIG     1     -18.981 -18.245 -13.173  1.00  0.00    -0.011 C 
HETATM   18  C   LIG     1     -19.291 -19.546 -13.148  1.00  0.00     0.009 C 
ENDBRANCH  16  17
ENDBRANCH  15  16
ENDBRANCH  13  15
ENDBRANCH   5  13
ENDBRANCH   2   5
BRANCH   3  19
HETATM   19  C   LIG     1     -21.677 -12.137 -11.410  1.00  0.00     0.318 C 
BRANCH  19  20
HETATM   20  N   LIG     1     -20.654 -12.357 -12.432  1.00  0.00     0.092 N 
HETATM   21  H   LIG     1     -20.345 -13.328 -12.403  1.00  0.00     0.313 HD
HETATM   22  H   LIG     1     -21.061 -12.218 -13.356  1.00  0.00     0.313 HD
ENDBRANCH  19  20
BRANCH  19  23
HETATM   23  C   LIG     1     -23.068 -12.184 -12.045  1.00  0.00     0.156 C 
BRANCH  23  24
HETATM   24  C   LIG     1     -23.068 -13.052 -13.280  1.00  0.00     0.261 C 
HETATM   25  O   LIG     1     -22.802 -14.248 -13.273  1.00  0.00    -0.265 OA
BRANCH  24  26
HETATM   26  O   LIG     1     -23.435 -12.317 -14.368  1.00  0.00    -0.318 OA
BRANCH  26  27
HETATM   27  C   LIG     1     -24.272 -12.989 -15.314  1.00  0.00     0.205 C 
BRANCH  27  28
HETATM   28  C   LIG     1     -24.218 -12.253 -16.611  1.00  0.00    -0.011 C 
HETATM   29  C   LIG     1     -24.036 -12.844 -17.797  1.00  0.00     0.009 C 
ENDBRANCH  27  28
ENDBRANCH  26  27
ENDBRANCH  24  26
ENDBRANCH  23  24
ENDBRANCH  19  23
ENDBRANCH   3  19
TORSDOF 14
ENDMDL
MODEL 6
REMARK VINA RESULT:      -7.7      2.332      5.392
REMARK  14 active torsions:
REMARK  status: ('A' for Active; 'I' for Inactive)
REMARK    1  A    between atoms: O_1  and  C_14 
REMARK    2  A    between atoms: O_1  and  C_21 
REMARK    3  A    between atoms: O_4  and  C_17 
REMARK    4  A    between atoms: O_4  and  C_22 
REMARK    5  A    between atoms: N_6  and  C_8 
REMARK       I    between atoms: N_6  and  C_12 
REMARK    6  A    between atoms: N_7  and  C_10 
REMARK    7  A    between atoms: C_8  and  C_9 
REMARK    8  A    between atoms: C_8  and  C_14 
REMARK    9  A    between atoms: C_9  and  C_11 
REMARK   10  A    between atoms: C_10  and  C_12 
REMARK   11  A    between atoms: C_10  and  C_13 
REMARK   12  A    between atoms: C_13  and  C_17 
REMARK   13  A    between atoms: C_21  and  C_23 
REMARK   14  A    between atoms: C_22  and  C_24 
ROOT
HETATM    1  O   LIG     1     -22.067 -15.764 -11.896  1.00  0.00    -0.271 OA
HETATM    2  N   LIG     1     -19.796 -16.174 -11.644  1.00  0.00    -0.345 N 
HETATM    3  C   LIG     1     -20.895 -15.498 -12.154  1.00  0.00     0.252 C 
HETATM    4  H   LIG     1     -18.862 -15.892 -11.929  1.00  0.00     0.163 HD
ENDROOT
BRANCH   2   5
HETATM    5  C   LIG     1     -19.905 -17.289 -10.732  1.00  0.00     0.188 C 
BRANCH   5   6
HETATM    6  C   LIG     1     -18.757 -18.290 -10.935  1.00  0.00     0.074 C 
BRANCH   6   7
HETATM    7  C   LIG     1     -19.097 -19.472 -11.814  1.00  0.00    -0.056 A 
HETATM    8  C   LIG     1     -19.343 -19.282 -13.175  1.00  0.00     0.007 A 
HETATM    9  C   LIG     1     -19.657 -20.372 -13.985  1.00  0.00     0.001 A 
HETATM   10  C   LIG     1     -19.725 -21.652 -13.437  1.00  0.00     0.000 A 
HETATM   11  C   LIG     1     -19.478 -21.843 -12.077  1.00  0.00     0.001 A 
HETATM   12  C   LIG     1     -19.164 -20.752 -11.266  1.00  0.00     0.007 A 
ENDBRANCH   6   7
ENDBRANCH   5   6
BRANCH   5  13
HETATM   13  C   LIG     1     -20.021 -16.842  -9.280  1.00  0.00     0.282 C 
HETATM   14  O   LIG     1     -19.077 -16.370  -8.656  1.00  0.00    -0.263 OA
BRANCH  13  15
HETATM   15  O   LIG     1     -21.272 -17.047  -8.778  1.00  0.00    -0.316 OA
BRANCH  15  16
HETATM   16  C   LIG     1     -21.594 -16.312  -7.594  1.00  0.00     0.205 C 
BRANCH  16  17
HETATM   17  C   LIG     1     -22.402 -17.184  -6.693  1.00  0.00    -0.011 C 
HETATM   18  C   LIG     1     -23.739 -17.199  -6.667  1.00  0.00     0.009 C 
ENDBRANCH  16  17
ENDBRANCH  15  16
ENDBRANCH  13  15
ENDBRANCH   5  13
ENDBRANCH   2   5
BRANCH   3  19
HETATM   19  C   LIG     1     -20.492 -14.384 -13.117  1.00  0.00     0.318 C 
BRANCH  19  20
HETATM   20  N   LIG     1     -20.122 -15.025 -14.379  1.00  0.00     0.092 N 
HETATM   21  H   LIG     1     -20.007 -14.315 -15.102  1.00  0.00     0.313 HD
HETATM   22  H   LIG     1     -19.212 -15.474 -14.279  1.00  0.00     0.313 HD
ENDBRANCH  19  20
BRANCH  19  23
HETATM   23  C   LIG     1     -21.669 -13.433 -13.341  1.00  0.00     0.156 C 
BRANCH  23  24
HETATM   24  C   LIG     1     -22.312 -13.676 -14.685  1.00  0.00     0.261 C 
HETATM   25  O   LIG     1     -21.900 -13.198 -15.735  1.00  0.00    -0.265 OA
BRANCH  24  26
HETATM   26  O   LIG     1     -23.376 -14.517 -14.548  1.00  0.00    -0.318 OA
BRANCH  26  27
HETATM   27  C   LIG     1     -23.627 -15.382 -15.660  1.00  0.00     0.205 C 
BRANCH  27  28
HETATM   28  C   LIG     1     -23.764 -16.781 -15.160  1.00  0.00    -0.011 C 
HETATM   29  C   LIG     1     -22.733 -17.547 -14.790  1.00  0.00     0.009 C 
ENDBRANCH  27  28
ENDBRANCH  26  27
ENDBRANCH  24  26
ENDBRANCH  23  24
ENDBRANCH  19  23
ENDBRANCH   3  19
TORSDOF 14
ENDMDL
MODEL 7
REMARK VINA RESULT:      -7.7      2.516      5.131
REMARK  14 active torsions:
REMARK  status: ('A' for Active; 'I' for Inactive)
REMARK    1  A    between atoms: O_1  and  C_14 
REMARK    2  A    between atoms: O_1  and  C_21 
REMARK    3  A    between atoms: O_4  and  C_17 
REMARK    4  A    between atoms: O_4  and  C_22 
REMARK    5  A    between atoms: N_6  and  C_8 
REMARK       I    between atoms: N_6  and  C_12 
REMARK    6  A    between atoms: N_7  and  C_10 
REMARK    7  A    between atoms: C_8  and  C_9 
REMARK    8  A    between atoms: C_8  and  C_14 
REMARK    9  A    between atoms: C_9  and  C_11 
REMARK   10  A    between atoms: C_10  and  C_12 
REMARK   11  A    between atoms: C_10  and  C_13 
REMARK   12  A    between atoms: C_13  and  C_17 
REMARK   13  A    between atoms: C_21  and  C_23 
REMARK   14  A    between atoms: C_22  and  C_24 
ROOT
HETATM    1  O   LIG     1     -21.991 -13.093  -8.993  1.00  0.00    -0.271 OA
HETATM    2  N   LIG     1     -21.369 -14.306 -10.872  1.00  0.00    -0.345 N 
HETATM    3  C   LIG     1     -21.810 -13.172 -10.206  1.00  0.00     0.252 C 
HETATM    4  H   LIG     1     -21.264 -14.282 -11.882  1.00  0.00     0.163 HD
ENDROOT
BRANCH   2   5
HETATM    5  C   LIG     1     -21.063 -15.549 -10.201  1.00  0.00     0.188 C 
BRANCH   5   6
HETATM    6  C   LIG     1     -22.293 -16.468 -10.141  1.00  0.00     0.074 C 
BRANCH   6   7
HETATM    7  C   LIG     1     -22.765 -16.801  -8.744  1.00  0.00    -0.056 A 
HETATM    8  C   LIG     1     -21.905 -17.442  -7.851  1.00  0.00     0.007 A 
HETATM    9  C   LIG     1     -22.342 -17.750  -6.563  1.00  0.00     0.001 A 
HETATM   10  C   LIG     1     -23.637 -17.418  -6.167  1.00  0.00     0.000 A 
HETATM   11  C   LIG     1     -24.496 -16.777  -7.059  1.00  0.00     0.001 A 
HETATM   12  C   LIG     1     -24.060 -16.469  -8.348  1.00  0.00     0.007 A 
ENDBRANCH   6   7
ENDBRANCH   5   6
BRANCH   5  13
HETATM   13  C   LIG     1     -19.854 -16.253 -10.806  1.00  0.00     0.282 C 
HETATM   14  O   LIG     1     -19.161 -17.040 -10.170  1.00  0.00    -0.263 OA
BRANCH  13  15
HETATM   15  O   LIG     1     -19.643 -15.888 -12.102  1.00  0.00    -0.316 OA
BRANCH  15  16
HETATM   16  C   LIG     1     -19.036 -16.881 -12.936  1.00  0.00     0.205 C 
BRANCH  16  17
HETATM   17  C   LIG     1     -18.400 -16.204 -14.103  1.00  0.00    -0.011 C 
HETATM   18  C   LIG     1     -17.681 -15.080 -14.015  1.00  0.00     0.009 C 
ENDBRANCH  16  17
ENDBRANCH  15  16
ENDBRANCH  13  15
ENDBRANCH   5  13
ENDBRANCH   2   5
BRANCH   3  19
HETATM   19  C   LIG     1     -22.087 -12.013 -11.161  1.00  0.00     0.318 C 
BRANCH  19  20
HETATM   20  N   LIG     1     -21.004 -12.005 -12.146  1.00  0.00     0.092 N 
HETATM   21  H   LIG     1     -21.165 -11.262 -12.825  1.00  0.00     0.313 HD
HETATM   22  H   LIG     1     -20.125 -11.779 -11.683  1.00  0.00     0.313 HD
ENDBRANCH  19  20
BRANCH  19  23
HETATM   23  C   LIG     1     -23.429 -12.220 -11.864  1.00  0.00     0.156 C 
BRANCH  23  24
HETATM   24  C   LIG     1     -23.229 -12.716 -13.276  1.00  0.00     0.261 C 
HETATM   25  O   LIG     1     -23.416 -12.028 -14.272  1.00  0.00    -0.265 OA
BRANCH  24  26
HETATM   26  O   LIG     1     -22.788 -14.006 -13.261  1.00  0.00    -0.318 OA
BRANCH  26  27
HETATM   27  C   LIG     1     -22.090 -14.433 -14.434  1.00  0.00     0.205 C 
BRANCH  27  28
HETATM   28  C   LIG     1     -22.286 -15.903 -14.602  1.00  0.00    -0.011 C 
HETATM   29  C   LIG     1     -22.966 -16.669 -13.743  1.00  0.00     0.009 C 
ENDBRANCH  27  28
ENDBRANCH  26  27
ENDBRANCH  24  26
ENDBRANCH  23  24
ENDBRANCH  19  23
ENDBRANCH   3  19
TORSDOF 14
ENDMDL
MODEL 8
REMARK VINA RESULT:      -7.6      4.279      6.016
REMARK  14 active torsions:
REMARK  status: ('A' for Active; 'I' for Inactive)
REMARK    1  A    between atoms: O_1  and  C_14 
REMARK    2  A    between atoms: O_1  and  C_21 
REMARK    3  A    between atoms: O_4  and  C_17 
REMARK    4  A    between atoms: O_4  and  C_22 
REMARK    5  A    between atoms: N_6  and  C_8 
REMARK       I    between atoms: N_6  and  C_12 
REMARK    6  A    between atoms: N_7  and  C_10 
REMARK    7  A    between atoms: C_8  and  C_9 
REMARK    8  A    between atoms: C_8  and  C_14 
REMARK    9  A    between atoms: C_9  and  C_11 
REMARK   10  A    between atoms: C_10  and  C_12 
REMARK   11  A    between atoms: C_10  and  C_13 
REMARK   12  A    between atoms: C_13  and  C_17 
REMARK   13  A    between atoms: C_21  and  C_23 
REMARK   14  A    between atoms: C_22  and  C_24 
ROOT
HETATM    1  O   LIG     1     -23.760 -16.945 -13.043  1.00  0.00    -0.271 OA
HETATM    2  N   LIG     1     -22.387 -16.572 -14.877  1.00  0.00    -0.345 N 
HETATM    3  C   LIG     1     -23.474 -17.135 -14.223  1.00  0.00     0.252 C 
HETATM    4  H   LIG     1     -22.220 -16.801 -15.853  1.00  0.00     0.163 HD
ENDROOT
BRANCH   2   5
HETATM    5  C   LIG     1     -21.449 -15.682 -14.233  1.00  0.00     0.188 C 
BRANCH   5   6
HETATM    6  C   LIG     1     -20.012 -16.214 -14.337  1.00  0.00     0.074 C 
BRANCH   6   7
HETATM    7  C   LIG     1     -19.621 -17.194 -13.254  1.00  0.00    -0.056 A 
HETATM    8  C   LIG     1     -19.289 -16.730 -11.980  1.00  0.00     0.007 A 
HETATM    9  C   LIG     1     -18.928 -17.634 -10.981  1.00  0.00     0.001 A 
HETATM   10  C   LIG     1     -18.897 -19.001 -11.256  1.00  0.00     0.000 A 
HETATM   11  C   LIG     1     -19.229 -19.465 -12.529  1.00  0.00     0.001 A 
HETATM   12  C   LIG     1     -19.590 -18.561 -13.527  1.00  0.00     0.007 A 
ENDBRANCH   6   7
ENDBRANCH   5   6
BRANCH   5  13
HETATM   13  C   LIG     1     -21.565 -14.250 -14.742  1.00  0.00     0.282 C 
HETATM   14  O   LIG     1     -20.592 -13.596 -15.103  1.00  0.00    -0.263 OA
BRANCH  13  15
HETATM   15  O   LIG     1     -22.852 -13.802 -14.726  1.00  0.00    -0.316 OA
BRANCH  15  16
HETATM   16  C   LIG     1     -23.282 -13.106 -15.900  1.00  0.00     0.205 C 
BRANCH  16  17
HETATM   17  C   LIG     1     -23.579 -14.105 -16.968  1.00  0.00    -0.011 C 
HETATM   18  C   LIG     1     -23.834 -13.785 -18.240  1.00  0.00     0.009 C 
ENDBRANCH  16  17
ENDBRANCH  15  16
ENDBRANCH  13  15
ENDBRANCH   5  13
ENDBRANCH   2   5
BRANCH   3  19
HETATM   19  C   LIG     1     -24.279 -18.060 -15.132  1.00  0.00     0.318 C 
BRANCH  19  20
HETATM   20  N   LIG     1     -23.423 -18.387 -16.273  1.00  0.00     0.092 N 
HETATM   21  H   LIG     1     -22.571 -18.838 -15.942  1.00  0.00     0.313 HD
HETATM   22  H   LIG     1     -23.893 -19.071 -16.865  1.00  0.00     0.313 HD
ENDBRANCH  19  20
BRANCH  19  23
HETATM   23  C   LIG     1     -24.657 -19.336 -14.380  1.00  0.00     0.156 C 
BRANCH  23  24
HETATM   24  C   LIG     1     -23.980 -20.542 -14.987  1.00  0.00     0.261 C 
HETATM   25  O   LIG     1     -22.826 -20.871 -14.741  1.00  0.00    -0.265 OA
BRANCH  24  26
HETATM   26  O   LIG     1     -24.848 -21.202 -15.805  1.00  0.00    -0.318 OA
BRANCH  26  27
HETATM   27  C   LIG     1     -24.370 -22.439 -16.342  1.00  0.00     0.205 C 
BRANCH  27  28
HETATM   28  C   LIG     1     -25.115 -23.562 -15.700  1.00  0.00    -0.011 C 
HETATM   29  C   LIG     1     -24.613 -24.789 -15.527  1.00  0.00     0.009 C 
ENDBRANCH  27  28
ENDBRANCH  26  27
ENDBRANCH  24  26
ENDBRANCH  23  24
ENDBRANCH  19  23
ENDBRANCH   3  19
TORSDOF 14
ENDMDL
MODEL 9
REMARK VINA RESULT:      -7.4      1.383      2.099
REMARK  14 active torsions:
REMARK  status: ('A' for Active; 'I' for Inactive)
REMARK    1  A    between atoms: O_1  and  C_14 
REMARK    2  A    between atoms: O_1  and  C_21 
REMARK    3  A    between atoms: O_4  and  C_17 
REMARK    4  A    between atoms: O_4  and  C_22 
REMARK    5  A    between atoms: N_6  and  C_8 
REMARK       I    between atoms: N_6  and  C_12 
REMARK    6  A    between atoms: N_7  and  C_10 
REMARK    7  A    between atoms: C_8  and  C_9 
REMARK    8  A    between atoms: C_8  and  C_14 
REMARK    9  A    between atoms: C_9  and  C_11 
REMARK   10  A    between atoms: C_10  and  C_12 
REMARK   11  A    between atoms: C_10  and  C_13 
REMARK   12  A    between atoms: C_13  and  C_17 
REMARK   13  A    between atoms: C_21  and  C_23 
REMARK   14  A    between atoms: C_22  and  C_24 
ROOT
HETATM    1  O   LIG     1     -22.706 -15.529 -12.812  1.00  0.00    -0.271 OA
HETATM    2  N   LIG     1     -20.955 -14.523 -11.667  1.00  0.00    -0.345 N 
HETATM    3  C   LIG     1     -21.585 -15.025 -12.797  1.00  0.00     0.252 C 
HETATM    4  H   LIG     1     -20.018 -14.140 -11.748  1.00  0.00     0.163 HD
ENDROOT
BRANCH   2   5
HETATM    5  C   LIG     1     -21.558 -14.534 -10.354  1.00  0.00     0.188 C 
BRANCH   5   6
HETATM    6  C   LIG     1     -21.203 -15.817  -9.587  1.00  0.00     0.074 C 
BRANCH   6   7
HETATM    7  C   LIG     1     -22.252 -16.272  -8.598  1.00  0.00    -0.056 A 
HETATM    8  C   LIG     1     -21.869 -16.931  -7.429  1.00  0.00     0.007 A 
HETATM    9  C   LIG     1     -22.837 -17.352  -6.516  1.00  0.00     0.001 A 
HETATM   10  C   LIG     1     -24.187 -17.114  -6.772  1.00  0.00     0.000 A 
HETATM   11  C   LIG     1     -24.570 -16.454  -7.940  1.00  0.00     0.001 A 
HETATM   12  C   LIG     1     -23.602 -16.034  -8.853  1.00  0.00     0.007 A 
ENDBRANCH   6   7
ENDBRANCH   5   6
BRANCH   5  13
HETATM   13  C   LIG     1     -21.226 -13.281  -9.553  1.00  0.00     0.282 C 
HETATM   14  O   LIG     1     -21.439 -12.149  -9.976  1.00  0.00    -0.263 OA
BRANCH  13  15
HETATM   15  O   LIG     1     -20.661 -13.576  -8.348  1.00  0.00    -0.316 OA
BRANCH  15  16
HETATM   16  C   LIG     1     -21.310 -13.013  -7.203  1.00  0.00     0.205 C 
BRANCH  16  17
HETATM   17  C   LIG     1     -20.400 -12.006  -6.583  1.00  0.00    -0.011 C 
HETATM   18  C   LIG     1     -20.747 -11.212  -5.565  1.00  0.00     0.009 C 
ENDBRANCH  16  17
ENDBRANCH  15  16
ENDBRANCH  13  15
ENDBRANCH   5  13
ENDBRANCH   2   5
BRANCH   3  19
HETATM   19  C   LIG     1     -20.709 -14.915 -14.043  1.00  0.00     0.318 C 
BRANCH  19  20
HETATM   20  N   LIG     1     -19.798 -13.791 -13.825  1.00  0.00     0.092 N 
HETATM   21  H   LIG     1     -18.886 -14.141 -13.535  1.00  0.00     0.313 HD
HETATM   22  H   LIG     1     -19.645 -13.302 -14.706  1.00  0.00     0.313 HD
ENDBRANCH  19  20
BRANCH  19  23
HETATM   23  C   LIG     1     -19.910 -16.204 -14.238  1.00  0.00     0.156 C 
BRANCH  23  24
HETATM   24  C   LIG     1     -19.176 -16.582 -12.973  1.00  0.00     0.261 C 
HETATM   25  O   LIG     1     -18.184 -15.995 -12.560  1.00  0.00    -0.265 OA
BRANCH  24  26
HETATM   26  O   LIG     1     -19.800 -17.632 -12.368  1.00  0.00    -0.318 OA
BRANCH  26  27
HETATM   27  C   LIG     1     -18.972 -18.439 -11.525  1.00  0.00     0.205 C 
BRANCH  27  28
HETATM   28  C   LIG     1     -19.052 -19.856 -11.987  1.00  0.00    -0.011 C 
HETATM   29  C   LIG     1     -19.493 -20.225 -13.195  1.00  0.00     0.009 C 
ENDBRANCH  27  28
ENDBRANCH  26  27
ENDBRANCH  24  26
ENDBRANCH  23  24
ENDBRANCH  19  23
ENDBRANCH   3  19
TORSDOF 14
ENDMDL
