MODEL 1
REMARK VINA RESULT:      -9.1      0.000      0.000
REMARK  3 active torsions:
REMARK  status: ('A' for Active; 'I' for Inactive)
REMARK    1  A    between atoms: C_4  and  O_11 
REMARK    2  A    between atoms: O_11  and  C_12 
REMARK    3  A    between atoms: C_12  and  C_13 
ROOT
HETATM    1  N   LIG     1     -19.219 -20.744  -9.824  1.00  0.00    -0.244 NA
HETATM    2  C   LIG     1     -19.317 -19.022 -11.505  1.00  0.00     0.018 A 
HETATM    3  C   LIG     1     -19.330 -19.445 -10.160  1.00  0.00     0.083 A 
HETATM    4  C   LIG     1     -19.579 -17.120  -9.483  1.00  0.00     0.096 A 
HETATM    5  C   LIG     1     -19.462 -18.476  -9.170  1.00  0.00     0.043 A 
HETATM    6  C   LIG     1     -19.436 -17.657 -11.821  1.00  0.00     0.004 A 
HETATM    7  C   LIG     1     -19.566 -16.710 -10.810  1.00  0.00     0.024 A 
HETATM    8  C   LIG     1     -19.184 -19.996 -12.504  1.00  0.00     0.003 A 
HETATM    9  C   LIG     1     -19.070 -21.336 -12.160  1.00  0.00     0.021 A 
HETATM   10  C   LIG     1     -19.093 -21.653 -10.816  1.00  0.00     0.099 A 
ENDROOT
BRANCH   4  11
HETATM   11  O   LIG     1     -19.708 -16.200  -8.487  1.00  0.00    -0.326 OA
BRANCH  11  12
HETATM   12  C   LIG     1     -20.784 -15.271  -8.596  1.00  0.00     0.175 C 
BRANCH  12  13
HETATM   13  C   LIG     1     -22.020 -15.882  -8.006  1.00  0.00     0.008 A 
HETATM   14  C   LIG     1     -23.251 -15.675  -8.620  1.00  0.00    -0.002 A 
HETATM   15  C   LIG     1     -24.401 -16.243  -8.071  1.00  0.00    -0.000 A 
HETATM   16  C   LIG     1     -24.312 -17.015  -6.913  1.00  0.00    -0.000 A 
HETATM   17  C   LIG     1     -23.075 -17.220  -6.304  1.00  0.00    -0.000 A 
HETATM   18  C   LIG     1     -21.925 -16.652  -6.852  1.00  0.00    -0.002 A 
ENDBRANCH  12  13
ENDBRANCH  11  12
ENDBRANCH   4  11
TORSDOF 3
ENDMDL
