MODEL 1
REMARK VINA RESULT:      -7.8      0.000      0.000
REMARK  9 active torsions:
REMARK  status: ('A' for Active; 'I' for Inactive)
REMARK    1  A    between atoms: O_4  and  C_22 
REMARK    2  A    between atoms: O_5  and  C_21 
REMARK    3  A    between atoms: N_6  and  C_12 
REMARK    4  A    between atoms: N_7  and  C_15 
REMARK    5  A    between atoms: N_7  and  C_16 
REMARK    6  A    between atoms: N_8  and  N_9 
REMARK    7  A    between atoms: N_8  and  C_16 
REMARK    8  A    between atoms: C_12  and  C_15 
REMARK    9  A    between atoms: C_17  and  C_18 
ROOT
HETATM    1  N   LIG     1     -19.877 -20.913 -13.892  1.00  0.00    -0.254 N 
HETATM    2  H   LIG     1     -19.397 -20.517 -14.694  1.00  0.00     0.191 HD
ENDROOT
BRANCH   1   3
HETATM    3  N   LIG     1     -20.968 -21.684 -14.115  1.00  0.00    -0.184 NA
HETATM    4  C   LIG     1     -21.918 -21.078 -14.750  1.00  0.00     0.151 C 
BRANCH   4   5
HETATM    5  C   LIG     1     -23.185 -21.753 -15.084  1.00  0.00     0.003 A 
HETATM    6  C   LIG     1     -23.183 -23.141 -15.088  1.00  0.00     0.053 A 
HETATM    7  C   LIG     1     -24.358 -23.826 -15.399  1.00  0.00     0.099 A 
HETATM    8  C   LIG     1     -25.520 -23.117 -15.702  1.00  0.00     0.102 A 
HETATM    9  C   LIG     1     -25.508 -21.722 -15.695  1.00  0.00     0.059 A 
HETATM   10  C   LIG     1     -24.334 -21.037 -15.384  1.00  0.00     0.025 A 
HETATM   11 BR   LIG     1     -24.371 -19.139 -15.388  1.00  0.00    -0.050 Br
BRANCH   7  12
HETATM   12  O   LIG     1     -24.357 -25.189 -15.402  1.00  0.00    -0.358 OA
HETATM   13  H   LIG     1     -24.279 -25.496 -16.322  1.00  0.00     0.217 HD
ENDBRANCH   7  12
BRANCH   8  14
HETATM   14  O   LIG     1     -26.674 -23.775 -16.006  1.00  0.00    -0.353 OA
HETATM   15  C   LIG     1     -26.870 -24.142 -17.369  1.00  0.00     0.210 C 
ENDBRANCH   8  14
ENDBRANCH   4   5
ENDBRANCH   1   3
BRANCH   1  16
HETATM   16  C   LIG     1     -19.424 -20.670 -12.609  1.00  0.00     0.188 C 
HETATM   17  S   LIG     1     -19.314 -21.945 -11.522  1.00  0.00    -0.040 SA
BRANCH  16  18
HETATM   18  N   LIG     1     -19.092 -19.347 -12.333  1.00  0.00    -0.364 N 
HETATM   19  H   LIG     1     -18.576 -19.180 -11.474  1.00  0.00     0.162 HD
BRANCH  18  20
HETATM   20  C   LIG     1     -19.397 -18.196 -13.137  1.00  0.00     0.150 C 
BRANCH  20  21
HETATM   21  C   LIG     1     -18.734 -16.936 -12.615  1.00  0.00     0.254 C 
BRANCH  21  22
HETATM   22  N   LIG     1     -19.541 -15.733 -13.011  1.00  0.00    -0.066 N 
HETATM   23  C   LIG     1     -20.240 -15.930 -14.335  1.00  0.00     0.261 C 
HETATM   24  C   LIG     1     -21.070 -14.691 -14.627  1.00  0.00     0.195 C 
HETATM   25  O   LIG     1     -20.240 -13.528 -14.653  1.00  0.00    -0.388 OA
HETATM   26  C   LIG     1     -19.618 -13.308 -13.387  1.00  0.00     0.195 C 
HETATM   27  C   LIG     1     -18.710 -14.471 -13.028  1.00  0.00     0.261 C 
HETATM   28  H   LIG     1     -20.267 -15.609 -12.292  1.00  0.00     0.280 HD
ENDBRANCH  21  22
ENDBRANCH  20  21
ENDBRANCH  18  20
ENDBRANCH  16  18
ENDBRANCH   1  16
TORSDOF 9
ENDMDL
MODEL 2
REMARK VINA RESULT:      -7.6      2.144      2.500
REMARK  9 active torsions:
REMARK  status: ('A' for Active; 'I' for Inactive)
REMARK    1  A    between atoms: O_4  and  C_22 
REMARK    2  A    between atoms: O_5  and  C_21 
REMARK    3  A    between atoms: N_6  and  C_12 
REMARK    4  A    between atoms: N_7  and  C_15 
REMARK    5  A    between atoms: N_7  and  C_16 
REMARK    6  A    between atoms: N_8  and  N_9 
REMARK    7  A    between atoms: N_8  and  C_16 
REMARK    8  A    between atoms: C_12  and  C_15 
REMARK    9  A    between atoms: C_17  and  C_18 
ROOT
HETATM    1  N   LIG     1     -19.925 -20.822 -14.032  1.00  0.00    -0.254 N 
HETATM    2  H   LIG     1     -19.487 -20.357 -14.820  1.00  0.00     0.191 HD
ENDROOT
BRANCH   1   3
HETATM    3  N   LIG     1     -20.988 -21.626 -14.273  1.00  0.00    -0.184 NA
HETATM    4  C   LIG     1     -22.011 -21.011 -14.770  1.00  0.00     0.151 C 
BRANCH   4   5
HETATM    5  C   LIG     1     -23.261 -21.717 -15.100  1.00  0.00     0.003 A 
HETATM    6  C   LIG     1     -23.226 -23.105 -15.096  1.00  0.00     0.053 A 
HETATM    7  C   LIG     1     -24.384 -23.819 -15.402  1.00  0.00     0.099 A 
HETATM    8  C   LIG     1     -25.563 -23.140 -15.707  1.00  0.00     0.102 A 
HETATM    9  C   LIG     1     -25.585 -21.745 -15.708  1.00  0.00     0.059 A 
HETATM   10  C   LIG     1     -24.427 -21.030 -15.402  1.00  0.00     0.025 A 
HETATM   11 BR   LIG     1     -24.509 -19.134 -15.417  1.00  0.00    -0.050 Br
BRANCH   7  12
HETATM   12  O   LIG     1     -24.351 -25.182 -15.397  1.00  0.00    -0.358 OA
HETATM   13  H   LIG     1     -24.151 -25.489 -16.299  1.00  0.00     0.217 HD
ENDBRANCH   7  12
BRANCH   8  14
HETATM   14  O   LIG     1     -26.701 -23.827 -16.007  1.00  0.00    -0.353 OA
HETATM   15  C   LIG     1     -26.913 -24.165 -17.376  1.00  0.00     0.210 C 
ENDBRANCH   8  14
ENDBRANCH   4   5
ENDBRANCH   1   3
BRANCH   1  16
HETATM   16  C   LIG     1     -19.445 -20.639 -12.749  1.00  0.00     0.188 C 
HETATM   17  S   LIG     1     -19.429 -21.937 -11.684  1.00  0.00    -0.040 SA
BRANCH  16  18
HETATM   18  N   LIG     1     -19.008 -19.351 -12.453  1.00  0.00    -0.364 N 
HETATM   19  H   LIG     1     -18.681 -18.792 -13.236  1.00  0.00     0.162 HD
BRANCH  18  20
HETATM   20  C   LIG     1     -18.977 -18.727 -11.158  1.00  0.00     0.150 C 
BRANCH  20  21
HETATM   21  C   LIG     1     -18.426 -17.315 -11.212  1.00  0.00     0.254 C 
BRANCH  21  22
HETATM   22  N   LIG     1     -19.301 -16.396 -10.410  1.00  0.00    -0.066 N 
HETATM   23  C   LIG     1     -19.591 -16.945  -9.034  1.00  0.00     0.261 C 
HETATM   24  C   LIG     1     -20.433 -15.928  -8.281  1.00  0.00     0.195 C 
HETATM   25  O   LIG     1     -21.643 -15.658  -8.990  1.00  0.00    -0.388 OA
HETATM   26  C   LIG     1     -21.376 -15.089 -10.272  1.00  0.00     0.195 C 
HETATM   27  C   LIG     1     -20.585 -16.059 -11.133  1.00  0.00     0.261 C 
HETATM   28  H   LIG     1     -18.781 -15.516 -10.290  1.00  0.00     0.280 HD
ENDBRANCH  21  22
ENDBRANCH  20  21
ENDBRANCH  18  20
ENDBRANCH  16  18
ENDBRANCH   1  16
TORSDOF 9
ENDMDL
MODEL 3
REMARK VINA RESULT:      -7.4      4.295      7.319
REMARK  9 active torsions:
REMARK  status: ('A' for Active; 'I' for Inactive)
REMARK    1  A    between atoms: O_4  and  C_22 
REMARK    2  A    between atoms: O_5  and  C_21 
REMARK    3  A    between atoms: N_6  and  C_12 
REMARK    4  A    between atoms: N_7  and  C_15 
REMARK    5  A    between atoms: N_7  and  C_16 
REMARK    6  A    between atoms: N_8  and  N_9 
REMARK    7  A    between atoms: N_8  and  C_16 
REMARK    8  A    between atoms: C_12  and  C_15 
REMARK    9  A    between atoms: C_17  and  C_18 
ROOT
HETATM    1  N   LIG     1     -20.595 -16.020 -15.063  1.00  0.00    -0.254 N 
HETATM    2  H   LIG     1     -20.080 -16.350 -15.873  1.00  0.00     0.191 HD
ENDROOT
BRANCH   1   3
HETATM    3  N   LIG     1     -20.670 -16.829 -13.979  1.00  0.00    -0.184 NA
HETATM    4  C   LIG     1     -19.520 -17.212 -13.529  1.00  0.00     0.151 C 
BRANCH   4   5
HETATM    5  C   LIG     1     -19.398 -18.096 -12.356  1.00  0.00     0.003 A 
HETATM    6  C   LIG     1     -19.152 -19.440 -12.596  1.00  0.00     0.053 A 
HETATM    7  C   LIG     1     -19.028 -20.316 -11.518  1.00  0.00     0.099 A 
HETATM    8  C   LIG     1     -19.151 -19.840 -10.213  1.00  0.00     0.102 A 
HETATM    9  C   LIG     1     -19.398 -18.485  -9.986  1.00  0.00     0.059 A 
HETATM   10  C   LIG     1     -19.522 -17.609 -11.063  1.00  0.00     0.025 A 
HETATM   11 BR   LIG     1     -19.858 -15.777 -10.699  1.00  0.00    -0.050 Br
BRANCH   7  12
HETATM   12  O   LIG     1     -18.786 -21.637 -11.753  1.00  0.00    -0.358 OA
HETATM   13  H   LIG     1     -17.828 -21.792 -11.686  1.00  0.00     0.217 HD
ENDBRANCH   7  12
BRANCH   8  14
HETATM   14  O   LIG     1     -19.031 -20.686  -9.152  1.00  0.00    -0.353 OA
HETATM   15  C   LIG     1     -19.520 -20.223  -7.895  1.00  0.00     0.210 C 
ENDBRANCH   8  14
ENDBRANCH   4   5
ENDBRANCH   1   3
BRANCH   1  16
HETATM   16  C   LIG     1     -21.202 -14.779 -15.071  1.00  0.00     0.188 C 
HETATM   17  S   LIG     1     -20.702 -13.614 -13.970  1.00  0.00    -0.040 SA
BRANCH  16  18
HETATM   18  N   LIG     1     -22.204 -14.609 -16.022  1.00  0.00    -0.364 N 
HETATM   19  H   LIG     1     -22.159 -13.762 -16.581  1.00  0.00     0.162 HD
BRANCH  18  20
HETATM   20  C   LIG     1     -23.290 -15.509 -16.301  1.00  0.00     0.150 C 
BRANCH  20  21
HETATM   21  C   LIG     1     -24.159 -15.756 -15.082  1.00  0.00     0.254 C 
BRANCH  21  22
HETATM   22  N   LIG     1     -24.026 -17.186 -14.645  1.00  0.00    -0.066 N 
HETATM   23  C   LIG     1     -23.447 -18.061 -15.731  1.00  0.00     0.261 C 
HETATM   24  C   LIG     1     -23.300 -19.470 -15.182  1.00  0.00     0.195 C 
HETATM   25  O   LIG     1     -24.564 -19.970 -14.742  1.00  0.00    -0.388 OA
HETATM   26  C   LIG     1     -25.092 -19.177 -13.678  1.00  0.00     0.195 C 
HETATM   27  C   LIG     1     -25.336 -17.752 -14.144  1.00  0.00     0.261 C 
HETATM   28  H   LIG     1     -23.369 -17.198 -13.853  1.00  0.00     0.280 HD
ENDBRANCH  21  22
ENDBRANCH  20  21
ENDBRANCH  18  20
ENDBRANCH  16  18
ENDBRANCH   1  16
TORSDOF 9
ENDMDL
MODEL 4
REMARK VINA RESULT:      -7.4      5.473      7.116
REMARK  9 active torsions:
REMARK  status: ('A' for Active; 'I' for Inactive)
REMARK    1  A    between atoms: O_4  and  C_22 
REMARK    2  A    between atoms: O_5  and  C_21 
REMARK    3  A    between atoms: N_6  and  C_12 
REMARK    4  A    between atoms: N_7  and  C_15 
REMARK    5  A    between atoms: N_7  and  C_16 
REMARK    6  A    between atoms: N_8  and  N_9 
REMARK    7  A    between atoms: N_8  and  C_16 
REMARK    8  A    between atoms: C_12  and  C_15 
REMARK    9  A    between atoms: C_17  and  C_18 
ROOT
HETATM    1  N   LIG     1     -20.284 -14.980  -8.017  1.00  0.00    -0.254 N 
HETATM    2  H   LIG     1     -19.603 -15.225  -7.306  1.00  0.00     0.191 HD
ENDROOT
BRANCH   1   3
HETATM    3  N   LIG     1     -20.302 -15.703  -9.163  1.00  0.00    -0.184 NA
HETATM    4  C   LIG     1     -19.540 -16.747  -9.138  1.00  0.00     0.151 C 
BRANCH   4   5
HETATM    5  C   LIG     1     -19.427 -17.657 -10.291  1.00  0.00     0.003 A 
HETATM    6  C   LIG     1     -19.519 -17.094 -11.556  1.00  0.00     0.053 A 
HETATM    7  C   LIG     1     -19.419 -17.914 -12.679  1.00  0.00     0.099 A 
HETATM    8  C   LIG     1     -19.226 -19.287 -12.526  1.00  0.00     0.102 A 
HETATM    9  C   LIG     1     -19.135 -19.841 -11.249  1.00  0.00     0.059 A 
HETATM   10  C   LIG     1     -19.235 -19.021 -10.125  1.00  0.00     0.025 A 
HETATM   11 BR   LIG     1     -19.103 -19.823  -8.410  1.00  0.00    -0.050 Br
BRANCH   7  12
HETATM   12  O   LIG     1     -19.509 -17.362 -13.922  1.00  0.00    -0.358 OA
HETATM   13  H   LIG     1     -20.442 -17.142 -14.095  1.00  0.00     0.217 HD
ENDBRANCH   7  12
BRANCH   8  14
HETATM   14  O   LIG     1     -19.126 -20.099 -13.616  1.00  0.00    -0.353 OA
HETATM   15  C   LIG     1     -19.892 -21.301 -13.602  1.00  0.00     0.210 C 
ENDBRANCH   8  14
ENDBRANCH   4   5
ENDBRANCH   1   3
BRANCH   1  16
HETATM   16  C   LIG     1     -21.168 -13.938  -7.817  1.00  0.00     0.188 C 
HETATM   17  S   LIG     1     -20.787 -12.739  -6.704  1.00  0.00    -0.040 SA
BRANCH  16  18
HETATM   18  N   LIG     1     -22.331 -13.984  -8.582  1.00  0.00    -0.364 N 
HETATM   19  H   LIG     1     -23.007 -14.700  -8.335  1.00  0.00     0.162 HD
BRANCH  18  20
HETATM   20  C   LIG     1     -22.675 -13.120  -9.678  1.00  0.00     0.150 C 
BRANCH  20  21
HETATM   21  C   LIG     1     -21.452 -12.529 -10.352  1.00  0.00     0.254 C 
BRANCH  21  22
HETATM   22  N   LIG     1     -21.395 -12.972 -11.785  1.00  0.00    -0.066 N 
HETATM   23  C   LIG     1     -22.154 -14.258 -12.012  1.00  0.00     0.261 C 
HETATM   24  C   LIG     1     -22.087 -14.599 -13.491  1.00  0.00     0.195 C 
HETATM   25  O   LIG     1     -20.728 -14.724 -13.914  1.00  0.00    -0.388 OA
HETATM   26  C   LIG     1     -20.020 -13.495 -13.752  1.00  0.00     0.195 C 
HETATM   27  C   LIG     1     -19.975 -13.094 -12.287  1.00  0.00     0.261 C 
HETATM   28  H   LIG     1     -21.853 -12.240 -12.344  1.00  0.00     0.280 HD
ENDBRANCH  21  22
ENDBRANCH  20  21
ENDBRANCH  18  20
ENDBRANCH  16  18
ENDBRANCH   1  16
TORSDOF 9
ENDMDL
MODEL 5
REMARK VINA RESULT:      -7.4      6.012      7.304
REMARK  9 active torsions:
REMARK  status: ('A' for Active; 'I' for Inactive)
REMARK    1  A    between atoms: O_4  and  C_22 
REMARK    2  A    between atoms: O_5  and  C_21 
REMARK    3  A    between atoms: N_6  and  C_12 
REMARK    4  A    between atoms: N_7  and  C_15 
REMARK    5  A    between atoms: N_7  and  C_16 
REMARK    6  A    between atoms: N_8  and  N_9 
REMARK    7  A    between atoms: N_8  and  C_16 
REMARK    8  A    between atoms: C_12  and  C_15 
REMARK    9  A    between atoms: C_17  and  C_18 
ROOT
HETATM    1  N   LIG     1     -20.521 -16.215 -14.951  1.00  0.00    -0.254 N 
HETATM    2  H   LIG     1     -20.250 -16.747 -15.771  1.00  0.00     0.191 HD
ENDROOT
BRANCH   1   3
HETATM    3  N   LIG     1     -20.515 -16.843 -13.750  1.00  0.00    -0.184 NA
HETATM    4  C   LIG     1     -19.361 -17.315 -13.410  1.00  0.00     0.151 C 
BRANCH   4   5
HETATM    5  C   LIG     1     -19.157 -18.031 -12.138  1.00  0.00     0.003 A 
HETATM    6  C   LIG     1     -18.855 -17.266 -11.020  1.00  0.00     0.053 A 
HETATM    7  C   LIG     1     -18.652 -17.897  -9.793  1.00  0.00     0.099 A 
HETATM    8  C   LIG     1     -18.754 -19.284  -9.696  1.00  0.00     0.102 A 
HETATM    9  C   LIG     1     -19.058 -20.042 -10.828  1.00  0.00     0.059 A 
HETATM   10  C   LIG     1     -19.261 -19.411 -12.055  1.00  0.00     0.025 A 
HETATM   11 BR   LIG     1     -19.673 -20.488 -13.563  1.00  0.00    -0.050 Br
BRANCH   7  12
HETATM   12  O   LIG     1     -18.357 -17.146  -8.695  1.00  0.00    -0.358 OA
HETATM   13  H   LIG     1     -19.059 -17.275  -8.034  1.00  0.00     0.217 HD
ENDBRANCH   7  12
BRANCH   8  14
HETATM   14  O   LIG     1     -18.560 -19.912  -8.503  1.00  0.00    -0.353 OA
HETATM   15  C   LIG     1     -19.722 -20.232  -7.742  1.00  0.00     0.210 C 
ENDBRANCH   8  14
ENDBRANCH   4   5
ENDBRANCH   1   3
BRANCH   1  16
HETATM   16  C   LIG     1     -20.883 -14.886 -15.060  1.00  0.00     0.188 C 
HETATM   17  S   LIG     1     -22.403 -14.495 -15.656  1.00  0.00    -0.040 SA
BRANCH  16  18
HETATM   18  N   LIG     1     -19.918 -13.968 -14.653  1.00  0.00    -0.364 N 
HETATM   19  H   LIG     1     -19.083 -13.904 -15.227  1.00  0.00     0.162 HD
BRANCH  18  20
HETATM   20  C   LIG     1     -19.985 -13.099 -13.510  1.00  0.00     0.150 C 
BRANCH  20  21
HETATM   21  C   LIG     1     -19.992 -13.866 -12.202  1.00  0.00     0.254 C 
BRANCH  21  22
HETATM   22  N   LIG     1     -21.303 -13.664 -11.500  1.00  0.00    -0.066 N 
HETATM   23  C   LIG     1     -21.771 -12.230 -11.573  1.00  0.00     0.261 C 
HETATM   24  C   LIG     1     -23.123 -12.132 -10.887  1.00  0.00     0.195 C 
HETATM   25  O   LIG     1     -23.030 -12.572  -9.531  1.00  0.00    -0.388 OA
HETATM   26  C   LIG     1     -22.639 -13.944  -9.458  1.00  0.00     0.195 C 
HETATM   27  C   LIG     1     -21.262 -14.140 -10.066  1.00  0.00     0.261 C 
HETATM   28  H   LIG     1     -21.999 -14.242 -11.991  1.00  0.00     0.280 HD
ENDBRANCH  21  22
ENDBRANCH  20  21
ENDBRANCH  18  20
ENDBRANCH  16  18
ENDBRANCH   1  16
TORSDOF 9
ENDMDL
MODEL 6
REMARK VINA RESULT:      -7.3      4.730      6.568
REMARK  9 active torsions:
REMARK  status: ('A' for Active; 'I' for Inactive)
REMARK    1  A    between atoms: O_4  and  C_22 
REMARK    2  A    between atoms: O_5  and  C_21 
REMARK    3  A    between atoms: N_6  and  C_12 
REMARK    4  A    between atoms: N_7  and  C_15 
REMARK    5  A    between atoms: N_7  and  C_16 
REMARK    6  A    between atoms: N_8  and  N_9 
REMARK    7  A    between atoms: N_8  and  C_16 
REMARK    8  A    between atoms: C_12  and  C_15 
REMARK    9  A    between atoms: C_17  and  C_18 
ROOT
HETATM    1  N   LIG     1     -19.743 -16.069  -8.073  1.00  0.00    -0.254 N 
HETATM    2  H   LIG     1     -18.774 -15.927  -7.808  1.00  0.00     0.191 HD
ENDROOT
BRANCH   1   3
HETATM    3  N   LIG     1     -20.010 -16.927  -9.088  1.00  0.00    -0.184 NA
HETATM    4  C   LIG     1     -18.988 -17.618  -9.473  1.00  0.00     0.151 C 
BRANCH   4   5
HETATM    5  C   LIG     1     -19.082 -18.604 -10.564  1.00  0.00     0.003 A 
HETATM    6  C   LIG     1     -19.213 -19.939 -10.205  1.00  0.00     0.053 A 
HETATM    7  C   LIG     1     -19.306 -20.910 -11.201  1.00  0.00     0.099 A 
HETATM    8  C   LIG     1     -19.266 -20.537 -12.545  1.00  0.00     0.102 A 
HETATM    9  C   LIG     1     -19.133 -19.193 -12.893  1.00  0.00     0.059 A 
HETATM   10  C   LIG     1     -19.041 -18.221 -11.896  1.00  0.00     0.025 A 
HETATM   11 BR   LIG     1     -18.862 -16.406 -12.422  1.00  0.00    -0.050 Br
BRANCH   7  12
HETATM   12  O   LIG     1     -19.436 -22.220 -10.850  1.00  0.00    -0.358 OA
HETATM   13  H   LIG     1     -20.101 -22.285 -10.142  1.00  0.00     0.217 HD
ENDBRANCH   7  12
BRANCH   8  14
HETATM   14  O   LIG     1     -19.356 -21.477 -13.528  1.00  0.00    -0.353 OA
HETATM   15  C   LIG     1     -20.508 -21.428 -14.367  1.00  0.00     0.210 C 
ENDBRANCH   8  14
ENDBRANCH   4   5
ENDBRANCH   1   3
BRANCH   1  16
HETATM   16  C   LIG     1     -20.759 -15.404  -7.414  1.00  0.00     0.188 C 
HETATM   17  S   LIG     1     -22.119 -16.260  -6.926  1.00  0.00    -0.040 SA
BRANCH  16  18
HETATM   18  N   LIG     1     -20.552 -14.042  -7.214  1.00  0.00    -0.364 N 
HETATM   19  H   LIG     1     -19.879 -13.788  -6.497  1.00  0.00     0.162 HD
BRANCH  18  20
HETATM   20  C   LIG     1     -21.184 -12.961  -7.919  1.00  0.00     0.150 C 
BRANCH  20  21
HETATM   21  C   LIG     1     -22.204 -13.451  -8.929  1.00  0.00     0.254 C 
BRANCH  21  22
HETATM   22  N   LIG     1     -21.554 -13.604 -10.274  1.00  0.00    -0.066 N 
HETATM   23  C   LIG     1     -20.970 -12.304 -10.774  1.00  0.00     0.261 C 
HETATM   24  C   LIG     1     -20.291 -12.566 -12.108  1.00  0.00     0.195 C 
HETATM   25  O   LIG     1     -21.224 -13.102 -13.047  1.00  0.00    -0.388 OA
HETATM   26  C   LIG     1     -21.740 -14.359 -12.604  1.00  0.00     0.195 C 
HETATM   27  C   LIG     1     -22.497 -14.195 -11.298  1.00  0.00     0.261 C 
HETATM   28  H   LIG     1     -20.778 -14.269 -10.158  1.00  0.00     0.280 HD
ENDBRANCH  21  22
ENDBRANCH  20  21
ENDBRANCH  18  20
ENDBRANCH  16  18
ENDBRANCH   1  16
TORSDOF 9
ENDMDL
MODEL 7
REMARK VINA RESULT:      -7.3      4.774      7.856
REMARK  9 active torsions:
REMARK  status: ('A' for Active; 'I' for Inactive)
REMARK    1  A    between atoms: O_4  and  C_22 
REMARK    2  A    between atoms: O_5  and  C_21 
REMARK    3  A    between atoms: N_6  and  C_12 
REMARK    4  A    between atoms: N_7  and  C_15 
REMARK    5  A    between atoms: N_7  and  C_16 
REMARK    6  A    between atoms: N_8  and  N_9 
REMARK    7  A    between atoms: N_8  and  C_16 
REMARK    8  A    between atoms: C_12  and  C_15 
REMARK    9  A    between atoms: C_17  and  C_18 
ROOT
HETATM    1  N   LIG     1     -20.341 -16.657  -9.302  1.00  0.00    -0.254 N 
HETATM    2  H   LIG     1     -19.427 -16.243  -9.150  1.00  0.00     0.191 HD
ENDROOT
BRANCH   1   3
HETATM    3  N   LIG     1     -21.065 -16.236 -10.368  1.00  0.00    -0.184 NA
HETATM    4  C   LIG     1     -20.665 -15.111 -10.863  1.00  0.00     0.151 C 
BRANCH   4   5
HETATM    5  C   LIG     1     -21.327 -14.492 -12.025  1.00  0.00     0.003 A 
HETATM    6  C   LIG     1     -20.976 -14.963 -13.282  1.00  0.00     0.053 A 
HETATM    7  C   LIG     1     -21.574 -14.409 -14.413  1.00  0.00     0.099 A 
HETATM    8  C   LIG     1     -22.518 -13.391 -14.275  1.00  0.00     0.102 A 
HETATM    9  C   LIG     1     -22.862 -12.926 -13.006  1.00  0.00     0.059 A 
HETATM   10  C   LIG     1     -22.263 -13.480 -11.875  1.00  0.00     0.025 A 
HETATM   11 BR   LIG     1     -22.767 -12.811 -10.171  1.00  0.00    -0.050 Br
BRANCH   7  12
HETATM   12  O   LIG     1     -21.231 -14.872 -15.647  1.00  0.00    -0.358 OA
HETATM   13  H   LIG     1     -20.664 -14.209 -16.079  1.00  0.00     0.217 HD
ENDBRANCH   7  12
BRANCH   8  14
HETATM   14  O   LIG     1     -23.110 -12.842 -15.373  1.00  0.00    -0.353 OA
HETATM   15  C   LIG     1     -24.482 -13.161 -15.596  1.00  0.00     0.210 C 
ENDBRANCH   8  14
ENDBRANCH   4   5
ENDBRANCH   1   3
BRANCH   1  16
HETATM   16  C   LIG     1     -20.830 -17.624  -8.445  1.00  0.00     0.188 C 
HETATM   17  S   LIG     1     -22.271 -17.346  -7.629  1.00  0.00    -0.040 SA
BRANCH  16  18
HETATM   18  N   LIG     1     -20.052 -18.773  -8.334  1.00  0.00    -0.364 N 
HETATM   19  H   LIG     1     -20.327 -19.439  -7.619  1.00  0.00     0.162 HD
BRANCH  18  20
HETATM   20  C   LIG     1     -18.906 -19.118  -9.131  1.00  0.00     0.150 C 
BRANCH  20  21
HETATM   21  C   LIG     1     -18.921 -20.573  -9.560  1.00  0.00     0.254 C 
BRANCH  21  22
HETATM   22  N   LIG     1     -18.894 -20.663 -11.058  1.00  0.00    -0.066 N 
HETATM   23  C   LIG     1     -19.295 -19.362 -11.712  1.00  0.00     0.261 C 
HETATM   24  C   LIG     1     -19.186 -19.531 -13.218  1.00  0.00     0.195 C 
HETATM   25  O   LIG     1     -20.017 -20.605 -13.662  1.00  0.00    -0.388 OA
HETATM   26  C   LIG     1     -19.608 -21.847 -13.087  1.00  0.00     0.195 C 
HETATM   27  C   LIG     1     -19.739 -21.804 -11.575  1.00  0.00     0.261 C 
HETATM   28  H   LIG     1     -17.921 -20.860 -11.329  1.00  0.00     0.280 HD
ENDBRANCH  21  22
ENDBRANCH  20  21
ENDBRANCH  18  20
ENDBRANCH  16  18
ENDBRANCH   1  16
TORSDOF 9
ENDMDL
MODEL 8
REMARK VINA RESULT:      -7.3      6.533      7.864
REMARK  9 active torsions:
REMARK  status: ('A' for Active; 'I' for Inactive)
REMARK    1  A    between atoms: O_4  and  C_22 
REMARK    2  A    between atoms: O_5  and  C_21 
REMARK    3  A    between atoms: N_6  and  C_12 
REMARK    4  A    between atoms: N_7  and  C_15 
REMARK    5  A    between atoms: N_7  and  C_16 
REMARK    6  A    between atoms: N_8  and  N_9 
REMARK    7  A    between atoms: N_8  and  C_16 
REMARK    8  A    between atoms: C_12  and  C_15 
REMARK    9  A    between atoms: C_17  and  C_18 
ROOT
HETATM    1  N   LIG     1     -18.214 -16.192 -11.943  1.00  0.00    -0.254 N 
HETATM    2  H   LIG     1     -17.348 -15.720 -11.705  1.00  0.00     0.191 HD
ENDROOT
BRANCH   1   3
HETATM    3  N   LIG     1     -19.003 -15.642 -12.897  1.00  0.00    -0.184 NA
HETATM    4  C   LIG     1     -20.050 -15.043 -12.432  1.00  0.00     0.151 C 
BRANCH   4   5
HETATM    5  C   LIG     1     -21.026 -14.383 -13.317  1.00  0.00     0.003 A 
HETATM    6  C   LIG     1     -20.926 -14.638 -14.677  1.00  0.00     0.053 A 
HETATM    7  C   LIG     1     -21.827 -14.037 -15.555  1.00  0.00     0.099 A 
HETATM    8  C   LIG     1     -22.819 -13.188 -15.064  1.00  0.00     0.102 A 
HETATM    9  C   LIG     1     -22.910 -12.940 -13.694  1.00  0.00     0.059 A 
HETATM   10  C   LIG     1     -22.008 -13.541 -12.816  1.00  0.00     0.025 A 
HETATM   11 BR   LIG     1     -22.175 -13.171 -10.962  1.00  0.00    -0.050 Br
BRANCH   7  12
HETATM   12  O   LIG     1     -21.729 -14.288 -16.891  1.00  0.00    -0.358 OA
HETATM   13  H   LIG     1     -21.960 -15.220 -17.048  1.00  0.00     0.217 HD
ENDBRANCH   7  12
BRANCH   8  14
HETATM   14  O   LIG     1     -23.706 -12.596 -15.912  1.00  0.00    -0.353 OA
HETATM   15  C   LIG     1     -24.960 -13.249 -16.098  1.00  0.00     0.210 C 
ENDBRANCH   8  14
ENDBRANCH   4   5
ENDBRANCH   1   3
BRANCH   1  16
HETATM   16  C   LIG     1     -18.574 -17.366 -11.309  1.00  0.00     0.188 C 
HETATM   17  S   LIG     1     -19.053 -18.685 -12.232  1.00  0.00    -0.040 SA
BRANCH  16  18
HETATM   18  N   LIG     1     -18.503 -17.341  -9.919  1.00  0.00    -0.364 N 
HETATM   19  H   LIG     1     -17.668 -17.737  -9.501  1.00  0.00     0.162 HD
BRANCH  18  20
HETATM   20  C   LIG     1     -19.486 -16.806  -9.016  1.00  0.00     0.150 C 
BRANCH  20  21
HETATM   21  C   LIG     1     -20.615 -17.782  -8.749  1.00  0.00     0.254 C 
BRANCH  21  22
HETATM   22  N   LIG     1     -21.766 -17.066  -8.106  1.00  0.00    -0.066 N 
HETATM   23  C   LIG     1     -22.321 -17.828  -6.926  1.00  0.00     0.261 C 
HETATM   24  C   LIG     1     -23.441 -17.007  -6.309  1.00  0.00     0.195 C 
HETATM   25  O   LIG     1     -24.460 -16.745  -7.275  1.00  0.00    -0.388 OA
HETATM   26  C   LIG     1     -23.952 -15.978  -8.368  1.00  0.00     0.195 C 
HETATM   27  C   LIG     1     -22.861 -16.743  -9.096  1.00  0.00     0.261 C 
HETATM   28  H   LIG     1     -21.403 -16.170  -7.753  1.00  0.00     0.280 HD
ENDBRANCH  21  22
ENDBRANCH  20  21
ENDBRANCH  18  20
ENDBRANCH  16  18
ENDBRANCH   1  16
TORSDOF 9
ENDMDL
MODEL 9
REMARK VINA RESULT:      -7.2      5.760      7.224
REMARK  9 active torsions:
REMARK  status: ('A' for Active; 'I' for Inactive)
REMARK    1  A    between atoms: O_4  and  C_22 
REMARK    2  A    between atoms: O_5  and  C_21 
REMARK    3  A    between atoms: N_6  and  C_12 
REMARK    4  A    between atoms: N_7  and  C_15 
REMARK    5  A    between atoms: N_7  and  C_16 
REMARK    6  A    between atoms: N_8  and  N_9 
REMARK    7  A    between atoms: N_8  and  C_16 
REMARK    8  A    between atoms: C_12  and  C_15 
REMARK    9  A    between atoms: C_17  and  C_18 
ROOT
HETATM    1  N   LIG     1     -21.152 -16.376 -14.989  1.00  0.00    -0.254 N 
HETATM    2  H   LIG     1     -20.332 -16.310 -15.584  1.00  0.00     0.191 HD
ENDROOT
BRANCH   1   3
HETATM    3  N   LIG     1     -21.008 -16.924 -13.759  1.00  0.00    -0.184 NA
HETATM    4  C   LIG     1     -19.811 -17.346 -13.508  1.00  0.00     0.151 C 
BRANCH   4   5
HETATM    5  C   LIG     1     -19.460 -17.972 -12.222  1.00  0.00     0.003 A 
HETATM    6  C   LIG     1     -19.228 -17.127 -11.146  1.00  0.00     0.053 A 
HETATM    7  C   LIG     1     -18.892 -17.671  -9.907  1.00  0.00     0.099 A 
HETATM    8  C   LIG     1     -18.792 -19.054  -9.756  1.00  0.00     0.102 A 
HETATM    9  C   LIG     1     -19.027 -19.893 -10.846  1.00  0.00     0.059 A 
HETATM   10  C   LIG     1     -19.363 -19.349 -12.085  1.00  0.00     0.025 A 
HETATM   11 BR   LIG     1     -19.673 -20.534 -13.535  1.00  0.00    -0.050 Br
BRANCH   7  12
HETATM   12  O   LIG     1     -18.665 -16.841  -8.850  1.00  0.00    -0.358 OA
HETATM   13  H   LIG     1     -19.302 -17.056  -8.146  1.00  0.00     0.217 HD
ENDBRANCH   7  12
BRANCH   8  14
HETATM   14  O   LIG     1     -18.465 -19.598  -8.551  1.00  0.00    -0.353 OA
HETATM   15  C   LIG     1     -19.520 -20.196  -7.802  1.00  0.00     0.210 C 
ENDBRANCH   8  14
ENDBRANCH   4   5
ENDBRANCH   1   3
BRANCH   1  16
HETATM   16  C   LIG     1     -22.380 -15.918 -15.427  1.00  0.00     0.188 C 
HETATM   17  S   LIG     1     -23.763 -16.797 -15.063  1.00  0.00    -0.040 SA
BRANCH  16  18
HETATM   18  N   LIG     1     -22.350 -14.731 -16.155  1.00  0.00    -0.364 N 
HETATM   19  H   LIG     1     -22.553 -14.804 -17.147  1.00  0.00     0.162 HD
BRANCH  18  20
HETATM   20  C   LIG     1     -22.069 -13.416 -15.648  1.00  0.00     0.150 C 
BRANCH  20  21
HETATM   21  C   LIG     1     -22.983 -13.036 -14.498  1.00  0.00     0.254 C 
BRANCH  21  22
HETATM   22  N   LIG     1     -22.165 -12.542 -13.340  1.00  0.00    -0.066 N 
HETATM   23  C   LIG     1     -20.849 -13.273 -13.221  1.00  0.00     0.261 C 
HETATM   24  C   LIG     1     -20.071 -12.673 -12.062  1.00  0.00     0.195 C 
HETATM   25  O   LIG     1     -20.823 -12.770 -10.851  1.00  0.00    -0.388 OA
HETATM   26  C   LIG     1     -22.044 -12.035 -10.940  1.00  0.00     0.195 C 
HETATM   27  C   LIG     1     -22.929 -12.600 -12.037  1.00  0.00     0.261 C 
HETATM   28  H   LIG     1     -21.953 -11.551 -13.523  1.00  0.00     0.280 HD
ENDBRANCH  21  22
ENDBRANCH  20  21
ENDBRANCH  18  20
ENDBRANCH  16  18
ENDBRANCH   1  16
TORSDOF 9
ENDMDL
