MODEL 1
REMARK VINA RESULT:      -7.8      0.000      0.000
REMARK  14 active torsions:
REMARK  status: ('A' for Active; 'I' for Inactive)
REMARK    1  A    between atoms: O_1  and  C_14 
REMARK    2  A    between atoms: O_1  and  C_21 
REMARK    3  A    between atoms: O_4  and  C_17 
REMARK    4  A    between atoms: O_4  and  C_22 
REMARK    5  A    between atoms: N_6  and  C_8 
REMARK       I    between atoms: N_6  and  C_12 
REMARK    6  A    between atoms: N_7  and  C_10 
REMARK    7  A    between atoms: C_8  and  C_9 
REMARK    8  A    between atoms: C_8  and  C_14 
REMARK    9  A    between atoms: C_9  and  C_11 
REMARK   10  A    between atoms: C_10  and  C_12 
REMARK   11  A    between atoms: C_10  and  C_13 
REMARK   12  A    between atoms: C_13  and  C_17 
REMARK   13  A    between atoms: C_21  and  C_23 
REMARK   14  A    between atoms: C_22  and  C_24 
ROOT
HETATM    1  O   LIG     1     -22.984 -16.282 -13.317  1.00  0.00    -0.271 OA
HETATM    2  N   LIG     1     -21.145 -16.052 -11.919  1.00  0.00    -0.345 N 
HETATM    3  C   LIG     1     -21.785 -16.430 -13.091  1.00  0.00     0.252 C 
HETATM    4  H   LIG     1     -20.150 -16.230 -11.816  1.00  0.00     0.163 HD
ENDROOT
BRANCH   2   5
HETATM    5  C   LIG     1     -21.828 -15.428 -10.809  1.00  0.00     0.188 C 
BRANCH   5   6
HETATM    6  C   LIG     1     -21.291 -15.941  -9.464  1.00  0.00     0.074 C 
BRANCH   6   7
HETATM    7  C   LIG     1     -22.356 -16.348  -8.472  1.00  0.00    -0.056 A 
HETATM    8  C   LIG     1     -22.000 -17.019  -7.302  1.00  0.00     0.007 A 
HETATM    9  C   LIG     1     -22.984 -17.395  -6.387  1.00  0.00     0.001 A 
HETATM   10  C   LIG     1     -24.323 -17.100  -6.641  1.00  0.00     0.000 A 
HETATM   11  C   LIG     1     -24.679 -16.427  -7.811  1.00  0.00     0.001 A 
HETATM   12  C   LIG     1     -23.695 -16.052  -8.726  1.00  0.00     0.007 A 
ENDBRANCH   6   7
ENDBRANCH   5   6
BRANCH   5  13
HETATM   13  C   LIG     1     -21.800 -13.907 -10.892  1.00  0.00     0.282 C 
HETATM   14  O   LIG     1     -22.820 -13.226 -10.889  1.00  0.00    -0.263 OA
BRANCH  13  15
HETATM   15  O   LIG     1     -20.531 -13.420 -10.983  1.00  0.00    -0.316 OA
BRANCH  15  16
HETATM   16  C   LIG     1     -20.322 -12.411 -11.977  1.00  0.00     0.205 C 
BRANCH  16  17
HETATM   17  C   LIG     1     -19.600 -13.018 -13.133  1.00  0.00    -0.011 C 
HETATM   18  C   LIG     1     -18.534 -13.816 -13.014  1.00  0.00     0.009 C 
ENDBRANCH  16  17
ENDBRANCH  15  16
ENDBRANCH  13  15
ENDBRANCH   5  13
ENDBRANCH   2   5
BRANCH   3  19
HETATM   19  C   LIG     1     -20.831 -17.092 -14.082  1.00  0.00     0.318 C 
BRANCH  19  20
HETATM   20  N   LIG     1     -20.486 -16.082 -15.082  1.00  0.00     0.092 N 
HETATM   21  H   LIG     1     -20.842 -16.367 -15.994  1.00  0.00     0.313 HD
HETATM   22  H   LIG     1     -20.956 -15.206 -14.857  1.00  0.00     0.313 HD
ENDBRANCH  19  20
BRANCH  19  23
HETATM   23  C   LIG     1     -19.568 -17.564 -13.360  1.00  0.00     0.156 C 
BRANCH  23  24
HETATM   24  C   LIG     1     -19.577 -19.063 -13.180  1.00  0.00     0.261 C 
HETATM   25  O   LIG     1     -20.150 -19.837 -13.937  1.00  0.00    -0.265 OA
BRANCH  24  26
HETATM   26  O   LIG     1     -18.836 -19.406 -12.088  1.00  0.00    -0.318 OA
BRANCH  26  27
HETATM   27  C   LIG     1     -18.909 -18.500 -10.983  1.00  0.00     0.205 C 
BRANCH  27  28
HETATM   28  C   LIG     1     -19.264 -19.268  -9.754  1.00  0.00    -0.011 C 
HETATM   29  C   LIG     1     -19.036 -20.577  -9.598  1.00  0.00     0.009 C 
ENDBRANCH  27  28
ENDBRANCH  26  27
ENDBRANCH  24  26
ENDBRANCH  23  24
ENDBRANCH  19  23
ENDBRANCH   3  19
TORSDOF 14
ENDMDL
MODEL 2
REMARK VINA RESULT:      -7.8      1.971      6.034
REMARK  14 active torsions:
REMARK  status: ('A' for Active; 'I' for Inactive)
REMARK    1  A    between atoms: O_1  and  C_14 
REMARK    2  A    between atoms: O_1  and  C_21 
REMARK    3  A    between atoms: O_4  and  C_17 
REMARK    4  A    between atoms: O_4  and  C_22 
REMARK    5  A    between atoms: N_6  and  C_8 
REMARK       I    between atoms: N_6  and  C_12 
REMARK    6  A    between atoms: N_7  and  C_10 
REMARK    7  A    between atoms: C_8  and  C_9 
REMARK    8  A    between atoms: C_8  and  C_14 
REMARK    9  A    between atoms: C_9  and  C_11 
REMARK   10  A    between atoms: C_10  and  C_12 
REMARK   11  A    between atoms: C_10  and  C_13 
REMARK   12  A    between atoms: C_13  and  C_17 
REMARK   13  A    between atoms: C_21  and  C_23 
REMARK   14  A    between atoms: C_22  and  C_24 
ROOT
HETATM    1  O   LIG     1     -20.220 -16.144 -13.256  1.00  0.00    -0.271 OA
HETATM    2  N   LIG     1     -19.217 -15.821 -11.188  1.00  0.00    -0.345 N 
HETATM    3  C   LIG     1     -19.510 -15.483 -12.501  1.00  0.00     0.252 C 
HETATM    4  H   LIG     1     -18.605 -15.219 -10.644  1.00  0.00     0.163 HD
ENDROOT
BRANCH   2   5
HETATM    5  C   LIG     1     -19.722 -17.012 -10.545  1.00  0.00     0.188 C 
BRANCH   5   6
HETATM    6  C   LIG     1     -18.639 -18.097 -10.449  1.00  0.00     0.074 C 
BRANCH   6   7
HETATM    7  C   LIG     1     -18.957 -19.375 -11.193  1.00  0.00    -0.056 A 
HETATM    8  C   LIG     1     -19.193 -19.342 -12.567  1.00  0.00     0.007 A 
HETATM    9  C   LIG     1     -19.487 -20.521 -13.253  1.00  0.00     0.001 A 
HETATM   10  C   LIG     1     -19.546 -21.732 -12.563  1.00  0.00     0.000 A 
HETATM   11  C   LIG     1     -19.309 -21.765 -11.189  1.00  0.00     0.001 A 
HETATM   12  C   LIG     1     -19.015 -20.586 -10.504  1.00  0.00     0.007 A 
ENDBRANCH   6   7
ENDBRANCH   5   6
BRANCH   5  13
HETATM   13  C   LIG     1     -20.353 -16.716  -9.190  1.00  0.00     0.282 C 
HETATM   14  O   LIG     1     -20.094 -15.704  -8.546  1.00  0.00    -0.263 OA
BRANCH  13  15
HETATM   15  O   LIG     1     -21.204 -17.704  -8.793  1.00  0.00    -0.316 OA
BRANCH  15  16
HETATM   16  C   LIG     1     -22.569 -17.314  -8.615  1.00  0.00     0.205 C 
BRANCH  16  17
HETATM   17  C   LIG     1     -22.877 -17.294  -7.155  1.00  0.00    -0.011 C 
HETATM   18  C   LIG     1     -24.105 -17.139  -6.651  1.00  0.00     0.009 C 
ENDBRANCH  16  17
ENDBRANCH  15  16
ENDBRANCH  13  15
ENDBRANCH   5  13
ENDBRANCH   2   5
BRANCH   3  19
HETATM   19  C   LIG     1     -18.820 -14.192 -12.934  1.00  0.00     0.318 C 
BRANCH  19  20
HETATM   20  N   LIG     1     -18.784 -14.197 -14.396  1.00  0.00     0.092 N 
HETATM   21  H   LIG     1     -19.194 -13.334 -14.751  1.00  0.00     0.313 HD
HETATM   22  H   LIG     1     -17.815 -14.199 -14.712  1.00  0.00     0.313 HD
ENDBRANCH  19  20
BRANCH  19  23
HETATM   23  C   LIG     1     -19.612 -12.982 -12.436  1.00  0.00     0.156 C 
BRANCH  23  24
HETATM   24  C   LIG     1     -21.069 -13.095 -12.816  1.00  0.00     0.261 C 
HETATM   25  O   LIG     1     -21.470 -13.132 -13.972  1.00  0.00    -0.265 OA
BRANCH  24  26
HETATM   26  O   LIG     1     -21.839 -13.180 -11.694  1.00  0.00    -0.318 OA
BRANCH  26  27
HETATM   27  C   LIG     1     -21.513 -12.257 -10.651  1.00  0.00     0.205 C 
BRANCH  27  28
HETATM   28  C   LIG     1     -21.956 -12.831  -9.346  1.00  0.00    -0.011 C 
HETATM   29  C   LIG     1     -22.990 -13.668  -9.210  1.00  0.00     0.009 C 
ENDBRANCH  27  28
ENDBRANCH  26  27
ENDBRANCH  24  26
ENDBRANCH  23  24
ENDBRANCH  19  23
ENDBRANCH   3  19
TORSDOF 14
ENDMDL
MODEL 3
REMARK VINA RESULT:      -7.7      2.655      6.310
REMARK  14 active torsions:
REMARK  status: ('A' for Active; 'I' for Inactive)
REMARK    1  A    between atoms: O_1  and  C_14 
REMARK    2  A    between atoms: O_1  and  C_21 
REMARK    3  A    between atoms: O_4  and  C_17 
REMARK    4  A    between atoms: O_4  and  C_22 
REMARK    5  A    between atoms: N_6  and  C_8 
REMARK       I    between atoms: N_6  and  C_12 
REMARK    6  A    between atoms: N_7  and  C_10 
REMARK    7  A    between atoms: C_8  and  C_9 
REMARK    8  A    between atoms: C_8  and  C_14 
REMARK    9  A    between atoms: C_9  and  C_11 
REMARK   10  A    between atoms: C_10  and  C_12 
REMARK   11  A    between atoms: C_10  and  C_13 
REMARK   12  A    between atoms: C_13  and  C_17 
REMARK   13  A    between atoms: C_21  and  C_23 
REMARK   14  A    between atoms: C_22  and  C_24 
ROOT
HETATM    1  O   LIG     1     -21.813 -16.560 -12.753  1.00  0.00    -0.271 OA
HETATM    2  N   LIG     1     -19.924 -16.037 -11.509  1.00  0.00    -0.345 N 
HETATM    3  C   LIG     1     -20.768 -15.929 -12.605  1.00  0.00     0.252 C 
HETATM    4  H   LIG     1     -19.071 -15.485 -11.482  1.00  0.00     0.163 HD
ENDROOT
BRANCH   2   5
HETATM    5  C   LIG     1     -20.182 -16.919 -10.394  1.00  0.00     0.188 C 
BRANCH   5   6
HETATM    6  C   LIG     1     -18.979 -17.832 -10.115  1.00  0.00     0.074 C 
BRANCH   6   7
HETATM    7  C   LIG     1     -19.066 -19.203 -10.746  1.00  0.00    -0.056 A 
HETATM    8  C   LIG     1     -19.206 -19.328 -12.128  1.00  0.00     0.007 A 
HETATM    9  C   LIG     1     -19.288 -20.594 -12.709  1.00  0.00     0.001 A 
HETATM   10  C   LIG     1     -19.230 -21.734 -11.909  1.00  0.00     0.000 A 
HETATM   11  C   LIG     1     -19.089 -21.609 -10.526  1.00  0.00     0.001 A 
HETATM   12  C   LIG     1     -19.008 -20.344  -9.945  1.00  0.00     0.007 A 
ENDBRANCH   6   7
ENDBRANCH   5   6
BRANCH   5  13
HETATM   13  C   LIG     1     -20.626 -16.164  -9.147  1.00  0.00     0.282 C 
HETATM   14  O   LIG     1     -19.863 -15.911  -8.221  1.00  0.00    -0.263 OA
BRANCH  13  15
HETATM   15  O   LIG     1     -21.947 -15.833  -9.190  1.00  0.00    -0.316 OA
BRANCH  15  16
HETATM   16  C   LIG     1     -22.865 -16.913  -8.992  1.00  0.00     0.205 C 
BRANCH  16  17
HETATM   17  C   LIG     1     -23.600 -16.689  -7.712  1.00  0.00    -0.011 C 
HETATM   18  C   LIG     1     -23.237 -17.219  -6.540  1.00  0.00     0.009 C 
ENDBRANCH  16  17
ENDBRANCH  15  16
ENDBRANCH  13  15
ENDBRANCH   5  13
ENDBRANCH   2   5
BRANCH   3  19
HETATM   19  C   LIG     1     -20.239 -14.948 -13.648  1.00  0.00     0.318 C 
BRANCH  19  20
HETATM   20  N   LIG     1     -20.264 -15.641 -14.937  1.00  0.00     0.092 N 
HETATM   21  H   LIG     1     -20.955 -15.205 -15.546  1.00  0.00     0.313 HD
HETATM   22  H   LIG     1     -19.364 -15.526 -15.402  1.00  0.00     0.313 HD
ENDBRANCH  19  20
BRANCH  19  23
HETATM   23  C   LIG     1     -21.133 -13.709 -13.704  1.00  0.00     0.156 C 
BRANCH  23  24
HETATM   24  C   LIG     1     -21.783 -13.573 -15.060  1.00  0.00     0.261 C 
HETATM   25  O   LIG     1     -21.203 -13.155 -16.055  1.00  0.00    -0.265 OA
BRANCH  24  26
HETATM   26  O   LIG     1     -23.073 -14.008 -15.006  1.00  0.00    -0.318 OA
BRANCH  26  27
HETATM   27  C   LIG     1     -24.016 -13.241 -15.760  1.00  0.00     0.205 C 
BRANCH  27  28
HETATM   28  C   LIG     1     -24.390 -14.007 -16.985  1.00  0.00    -0.011 C 
HETATM   29  C   LIG     1     -23.937 -13.724 -18.211  1.00  0.00     0.009 C 
ENDBRANCH  27  28
ENDBRANCH  26  27
ENDBRANCH  24  26
ENDBRANCH  23  24
ENDBRANCH  19  23
ENDBRANCH   3  19
TORSDOF 14
ENDMDL
MODEL 4
REMARK VINA RESULT:      -7.7      1.173      1.716
REMARK  14 active torsions:
REMARK  status: ('A' for Active; 'I' for Inactive)
REMARK    1  A    between atoms: O_1  and  C_14 
REMARK    2  A    between atoms: O_1  and  C_21 
REMARK    3  A    between atoms: O_4  and  C_17 
REMARK    4  A    between atoms: O_4  and  C_22 
REMARK    5  A    between atoms: N_6  and  C_8 
REMARK       I    between atoms: N_6  and  C_12 
REMARK    6  A    between atoms: N_7  and  C_10 
REMARK    7  A    between atoms: C_8  and  C_9 
REMARK    8  A    between atoms: C_8  and  C_14 
REMARK    9  A    between atoms: C_9  and  C_11 
REMARK   10  A    between atoms: C_10  and  C_12 
REMARK   11  A    between atoms: C_10  and  C_13 
REMARK   12  A    between atoms: C_13  and  C_17 
REMARK   13  A    between atoms: C_21  and  C_23 
REMARK   14  A    between atoms: C_22  and  C_24 
ROOT
HETATM    1  O   LIG     1     -22.827 -16.344 -13.092  1.00  0.00    -0.271 OA
HETATM    2  N   LIG     1     -20.909 -15.731 -11.937  1.00  0.00    -0.345 N 
HETATM    3  C   LIG     1     -21.602 -16.311 -12.989  1.00  0.00     0.252 C 
HETATM    4  H   LIG     1     -19.893 -15.768 -11.929  1.00  0.00     0.163 HD
ENDROOT
BRANCH   2   5
HETATM    5  C   LIG     1     -21.559 -15.085 -10.820  1.00  0.00     0.188 C 
BRANCH   5   6
HETATM    6  C   LIG     1     -21.095 -15.681  -9.483  1.00  0.00     0.074 C 
BRANCH   6   7
HETATM    7  C   LIG     1     -22.211 -16.146  -8.576  1.00  0.00    -0.056 A 
HETATM    8  C   LIG     1     -23.528 -15.765  -8.838  1.00  0.00     0.007 A 
HETATM    9  C   LIG     1     -24.558 -16.194  -8.000  1.00  0.00     0.001 A 
HETATM   10  C   LIG     1     -24.272 -17.003  -6.901  1.00  0.00     0.000 A 
HETATM   11  C   LIG     1     -22.956 -17.385  -6.640  1.00  0.00     0.001 A 
HETATM   12  C   LIG     1     -21.926 -16.956  -7.477  1.00  0.00     0.007 A 
ENDBRANCH   6   7
ENDBRANCH   5   6
BRANCH   5  13
HETATM   13  C   LIG     1     -21.402 -13.570 -10.854  1.00  0.00     0.282 C 
HETATM   14  O   LIG     1     -21.028 -12.922  -9.882  1.00  0.00    -0.263 OA
BRANCH  13  15
HETATM   15  O   LIG     1     -21.739 -13.046 -12.066  1.00  0.00    -0.316 OA
BRANCH  15  16
HETATM   16  C   LIG     1     -23.024 -12.419 -12.136  1.00  0.00     0.205 C 
BRANCH  16  17
HETATM   17  C   LIG     1     -23.504 -12.466 -13.548  1.00  0.00    -0.011 C 
HETATM   18  C   LIG     1     -22.849 -13.078 -14.540  1.00  0.00     0.009 C 
ENDBRANCH  16  17
ENDBRANCH  15  16
ENDBRANCH  13  15
ENDBRANCH   5  13
ENDBRANCH   2   5
BRANCH   3  19
HETATM   19  C   LIG     1     -20.668 -16.948 -14.015  1.00  0.00     0.318 C 
BRANCH  19  20
HETATM   20  N   LIG     1     -20.303 -15.900 -14.968  1.00  0.00     0.092 N 
HETATM   21  H   LIG     1     -19.317 -15.988 -15.213  1.00  0.00     0.313 HD
HETATM   22  H   LIG     1     -20.822 -16.032 -15.835  1.00  0.00     0.313 HD
ENDBRANCH  19  20
BRANCH  19  23
HETATM   23  C   LIG     1     -19.414 -17.483 -13.322  1.00  0.00     0.156 C 
BRANCH  23  24
HETATM   24  C   LIG     1     -19.506 -18.976 -13.115  1.00  0.00     0.261 C 
HETATM   25  O   LIG     1     -20.080 -19.737 -13.885  1.00  0.00    -0.265 OA
BRANCH  24  26
HETATM   26  O   LIG     1     -18.838 -19.333 -11.982  1.00  0.00    -0.318 OA
BRANCH  26  27
HETATM   27  C   LIG     1     -19.054 -18.489 -10.847  1.00  0.00     0.205 C 
BRANCH  27  28
HETATM   28  C   LIG     1     -19.109 -19.338  -9.620  1.00  0.00    -0.011 C 
HETATM   29  C   LIG     1     -18.993 -20.670  -9.628  1.00  0.00     0.009 C 
ENDBRANCH  27  28
ENDBRANCH  26  27
ENDBRANCH  24  26
ENDBRANCH  23  24
ENDBRANCH  19  23
ENDBRANCH   3  19
TORSDOF 14
ENDMDL
MODEL 5
REMARK VINA RESULT:      -7.7      2.682      6.184
REMARK  14 active torsions:
REMARK  status: ('A' for Active; 'I' for Inactive)
REMARK    1  A    between atoms: O_1  and  C_14 
REMARK    2  A    between atoms: O_1  and  C_21 
REMARK    3  A    between atoms: O_4  and  C_17 
REMARK    4  A    between atoms: O_4  and  C_22 
REMARK    5  A    between atoms: N_6  and  C_8 
REMARK       I    between atoms: N_6  and  C_12 
REMARK    6  A    between atoms: N_7  and  C_10 
REMARK    7  A    between atoms: C_8  and  C_9 
REMARK    8  A    between atoms: C_8  and  C_14 
REMARK    9  A    between atoms: C_9  and  C_11 
REMARK   10  A    between atoms: C_10  and  C_12 
REMARK   11  A    between atoms: C_10  and  C_13 
REMARK   12  A    between atoms: C_13  and  C_17 
REMARK   13  A    between atoms: C_21  and  C_23 
REMARK   14  A    between atoms: C_22  and  C_24 
ROOT
HETATM    1  O   LIG     1     -19.548 -16.029 -13.550  1.00  0.00    -0.271 OA
HETATM    2  N   LIG     1     -20.176 -15.213 -11.469  1.00  0.00    -0.345 N 
HETATM    3  C   LIG     1     -19.778 -15.088 -12.793  1.00  0.00     0.252 C 
HETATM    4  H   LIG     1     -20.327 -14.375 -10.914  1.00  0.00     0.163 HD
ENDROOT
BRANCH   2   5
HETATM    5  C   LIG     1     -20.369 -16.487 -10.817  1.00  0.00     0.188 C 
BRANCH   5   6
HETATM    6  C   LIG     1     -19.029 -17.197 -10.571  1.00  0.00     0.074 C 
BRANCH   6   7
HETATM    7  C   LIG     1     -19.065 -18.697 -10.758  1.00  0.00    -0.056 A 
HETATM    8  C   LIG     1     -18.986 -19.541  -9.650  1.00  0.00     0.007 A 
HETATM    9  C   LIG     1     -19.018 -20.924  -9.823  1.00  0.00     0.001 A 
HETATM   10  C   LIG     1     -19.130 -21.464 -11.103  1.00  0.00     0.000 A 
HETATM   11  C   LIG     1     -19.210 -20.621 -12.212  1.00  0.00     0.001 A 
HETATM   12  C   LIG     1     -19.178 -19.238 -12.039  1.00  0.00     0.007 A 
ENDBRANCH   6   7
ENDBRANCH   5   6
BRANCH   5  13
HETATM   13  C   LIG     1     -21.192 -16.366  -9.540  1.00  0.00     0.282 C 
HETATM   14  O   LIG     1     -20.708 -16.520  -8.424  1.00  0.00    -0.263 OA
BRANCH  13  15
HETATM   15  O   LIG     1     -22.502 -16.091  -9.798  1.00  0.00    -0.316 OA
BRANCH  15  16
HETATM   16  C   LIG     1     -23.194 -15.355  -8.783  1.00  0.00     0.205 C 
BRANCH  16  17
HETATM   17  C   LIG     1     -24.312 -16.194  -8.261  1.00  0.00    -0.011 C 
HETATM   18  C   LIG     1     -24.252 -16.897  -7.126  1.00  0.00     0.009 C 
ENDBRANCH  16  17
ENDBRANCH  15  16
ENDBRANCH  13  15
ENDBRANCH   5  13
ENDBRANCH   2   5
BRANCH   3  19
HETATM   19  C   LIG     1     -19.622 -13.629 -13.215  1.00  0.00     0.318 C 
BRANCH  19  20
HETATM   20  N   LIG     1     -18.196 -13.312 -13.132  1.00  0.00     0.092 N 
HETATM   21  H   LIG     1     -17.753 -13.490 -14.032  1.00  0.00     0.313 HD
HETATM   22  H   LIG     1     -18.079 -12.316 -12.951  1.00  0.00     0.313 HD
ENDBRANCH  19  20
BRANCH  19  23
HETATM   23  C   LIG     1     -20.115 -13.442 -14.650  1.00  0.00     0.156 C 
BRANCH  23  24
HETATM   24  C   LIG     1     -21.617 -13.579 -14.728  1.00  0.00     0.261 C 
HETATM   25  O   LIG     1     -22.396 -12.951 -14.022  1.00  0.00    -0.265 OA
BRANCH  24  26
HETATM   26  O   LIG     1     -21.955 -14.466 -15.707  1.00  0.00    -0.318 OA
BRANCH  26  27
HETATM   27  C   LIG     1     -23.343 -14.507 -16.050  1.00  0.00     0.205 C 
BRANCH  27  28
HETATM   28  C   LIG     1     -23.518 -13.926 -17.414  1.00  0.00    -0.011 C 
HETATM   29  C   LIG     1     -24.050 -12.722 -17.650  1.00  0.00     0.009 C 
ENDBRANCH  27  28
ENDBRANCH  26  27
ENDBRANCH  24  26
ENDBRANCH  23  24
ENDBRANCH  19  23
ENDBRANCH   3  19
TORSDOF 14
ENDMDL
MODEL 6
REMARK VINA RESULT:      -7.7      1.343      2.021
REMARK  14 active torsions:
REMARK  status: ('A' for Active; 'I' for Inactive)
REMARK    1  A    between atoms: O_1  and  C_14 
REMARK    2  A    between atoms: O_1  and  C_21 
REMARK    3  A    between atoms: O_4  and  C_17 
REMARK    4  A    between atoms: O_4  and  C_22 
REMARK    5  A    between atoms: N_6  and  C_8 
REMARK       I    between atoms: N_6  and  C_12 
REMARK    6  A    between atoms: N_7  and  C_10 
REMARK    7  A    between atoms: C_8  and  C_9 
REMARK    8  A    between atoms: C_8  and  C_14 
REMARK    9  A    between atoms: C_9  and  C_11 
REMARK   10  A    between atoms: C_10  and  C_12 
REMARK   11  A    between atoms: C_10  and  C_13 
REMARK   12  A    between atoms: C_13  and  C_17 
REMARK   13  A    between atoms: C_21  and  C_23 
REMARK   14  A    between atoms: C_22  and  C_24 
ROOT
HETATM    1  O   LIG     1     -22.834 -16.557 -13.458  1.00  0.00    -0.271 OA
HETATM    2  N   LIG     1     -21.039 -16.255 -12.018  1.00  0.00    -0.345 N 
HETATM    3  C   LIG     1     -21.629 -16.609 -13.223  1.00  0.00     0.252 C 
HETATM    4  H   LIG     1     -20.032 -16.347 -11.911  1.00  0.00     0.163 HD
ENDROOT
BRANCH   2   5
HETATM    5  C   LIG     1     -21.788 -15.773 -10.881  1.00  0.00     0.188 C 
BRANCH   5   6
HETATM    6  C   LIG     1     -21.285 -16.405  -9.574  1.00  0.00     0.074 C 
BRANCH   6   7
HETATM    7  C   LIG     1     -22.356 -16.644  -8.534  1.00  0.00    -0.056 A 
HETATM    8  C   LIG     1     -22.012 -17.157  -7.283  1.00  0.00     0.007 A 
HETATM    9  C   LIG     1     -23.001 -17.379  -6.324  1.00  0.00     0.001 A 
HETATM   10  C   LIG     1     -24.333 -17.088  -6.616  1.00  0.00     0.000 A 
HETATM   11  C   LIG     1     -24.677 -16.575  -7.867  1.00  0.00     0.001 A 
HETATM   12  C   LIG     1     -23.689 -16.353  -8.825  1.00  0.00     0.007 A 
ENDBRANCH   6   7
ENDBRANCH   5   6
BRANCH   5  13
HETATM   13  C   LIG     1     -21.815 -14.252 -10.805  1.00  0.00     0.282 C 
HETATM   14  O   LIG     1     -22.525 -13.566 -11.534  1.00  0.00    -0.263 OA
BRANCH  13  15
HETATM   15  O   LIG     1     -20.958 -13.769  -9.862  1.00  0.00    -0.316 OA
BRANCH  15  16
HETATM   16  C   LIG     1     -21.499 -12.779  -8.980  1.00  0.00     0.205 C 
BRANCH  16  17
HETATM   17  C   LIG     1     -21.336 -13.250  -7.574  1.00  0.00    -0.011 C 
HETATM   18  C   LIG     1     -20.874 -12.486  -6.578  1.00  0.00     0.009 C 
ENDBRANCH  16  17
ENDBRANCH  15  16
ENDBRANCH  13  15
ENDBRANCH   5  13
ENDBRANCH   2   5
BRANCH   3  19
HETATM   19  C   LIG     1     -20.608 -17.113 -14.240  1.00  0.00     0.318 C 
BRANCH  19  20
HETATM   20  N   LIG     1     -20.110 -15.940 -14.960  1.00  0.00     0.092 N 
HETATM   21  H   LIG     1     -19.963 -15.173 -14.305  1.00  0.00     0.313 HD
HETATM   22  H   LIG     1     -19.196 -16.149 -15.360  1.00  0.00     0.313 HD
ENDBRANCH  19  20
BRANCH  19  23
HETATM   23  C   LIG     1     -19.453 -17.813 -13.522  1.00  0.00     0.156 C 
BRANCH  23  24
HETATM   24  C   LIG     1     -19.718 -19.293 -13.388  1.00  0.00     0.261 C 
HETATM   25  O   LIG     1     -20.573 -19.893 -14.028  1.00  0.00    -0.265 OA
BRANCH  24  26
HETATM   26  O   LIG     1     -18.854 -19.843 -12.489  1.00  0.00    -0.318 OA
BRANCH  26  27
HETATM   27  C   LIG     1     -19.177 -19.629 -11.112  1.00  0.00     0.205 C 
BRANCH  27  28
HETATM   28  C   LIG     1     -19.080 -20.930 -10.387  1.00  0.00    -0.011 C 
HETATM   29  C   LIG     1     -18.891 -22.109 -10.990  1.00  0.00     0.009 C 
ENDBRANCH  27  28
ENDBRANCH  26  27
ENDBRANCH  24  26
ENDBRANCH  23  24
ENDBRANCH  19  23
ENDBRANCH   3  19
TORSDOF 14
ENDMDL
MODEL 7
REMARK VINA RESULT:      -7.7      2.873      6.575
REMARK  14 active torsions:
REMARK  status: ('A' for Active; 'I' for Inactive)
REMARK    1  A    between atoms: O_1  and  C_14 
REMARK    2  A    between atoms: O_1  and  C_21 
REMARK    3  A    between atoms: O_4  and  C_17 
REMARK    4  A    between atoms: O_4  and  C_22 
REMARK    5  A    between atoms: N_6  and  C_8 
REMARK       I    between atoms: N_6  and  C_12 
REMARK    6  A    between atoms: N_7  and  C_10 
REMARK    7  A    between atoms: C_8  and  C_9 
REMARK    8  A    between atoms: C_8  and  C_14 
REMARK    9  A    between atoms: C_9  and  C_11 
REMARK   10  A    between atoms: C_10  and  C_12 
REMARK   11  A    between atoms: C_10  and  C_13 
REMARK   12  A    between atoms: C_13  and  C_17 
REMARK   13  A    between atoms: C_21  and  C_23 
REMARK   14  A    between atoms: C_22  and  C_24 
ROOT
HETATM    1  O   LIG     1     -22.858 -15.968 -11.179  1.00  0.00    -0.271 OA
HETATM    2  N   LIG     1     -20.642 -15.682 -10.549  1.00  0.00    -0.345 N 
HETATM    3  C   LIG     1     -21.802 -15.340 -11.229  1.00  0.00     0.252 C 
HETATM    4  H   LIG     1     -19.810 -15.111 -10.665  1.00  0.00     0.163 HD
ENDROOT
BRANCH   2   5
HETATM    5  C   LIG     1     -20.541 -16.837  -9.686  1.00  0.00     0.188 C 
BRANCH   5   6
HETATM    6  C   LIG     1     -19.152 -17.487  -9.785  1.00  0.00     0.074 C 
BRANCH   6   7
HETATM    7  C   LIG     1     -19.138 -18.851 -10.437  1.00  0.00    -0.056 A 
HETATM    8  C   LIG     1     -19.049 -20.000  -9.651  1.00  0.00     0.007 A 
HETATM    9  C   LIG     1     -19.035 -21.258 -10.253  1.00  0.00     0.001 A 
HETATM   10  C   LIG     1     -19.109 -21.367 -11.641  1.00  0.00     0.000 A 
HETATM   11  C   LIG     1     -19.198 -20.219 -12.428  1.00  0.00     0.001 A 
HETATM   12  C   LIG     1     -19.212 -18.961 -11.826  1.00  0.00     0.007 A 
ENDBRANCH   6   7
ENDBRANCH   5   6
BRANCH   5  13
HETATM   13  C   LIG     1     -20.921 -16.520  -8.245  1.00  0.00     0.282 C 
HETATM   14  O   LIG     1     -20.452 -15.566  -7.632  1.00  0.00    -0.263 OA
BRANCH  13  15
HETATM   15  O   LIG     1     -21.809 -17.420  -7.738  1.00  0.00    -0.316 OA
BRANCH  15  16
HETATM   16  C   LIG     1     -22.632 -16.946  -6.667  1.00  0.00     0.205 C 
BRANCH  16  17
HETATM   17  C   LIG     1     -24.052 -16.933  -7.124  1.00  0.00    -0.011 C 
HETATM   18  C   LIG     1     -24.534 -16.094  -8.047  1.00  0.00     0.009 C 
ENDBRANCH  16  17
ENDBRANCH  15  16
ENDBRANCH  13  15
ENDBRANCH   5  13
ENDBRANCH   2   5
BRANCH   3  19
HETATM   19  C   LIG     1     -21.620 -14.094 -12.091  1.00  0.00     0.318 C 
BRANCH  19  20
HETATM   20  N   LIG     1     -20.183 -13.821 -12.148  1.00  0.00     0.092 N 
HETATM   21  H   LIG     1     -19.993 -12.905 -11.743  1.00  0.00     0.313 HD
HETATM   22  H   LIG     1     -19.686 -14.495 -11.567  1.00  0.00     0.313 HD
ENDBRANCH  19  20
BRANCH  19  23
HETATM   23  C   LIG     1     -22.158 -14.346 -13.500  1.00  0.00     0.156 C 
BRANCH  23  24
HETATM   24  C   LIG     1     -22.999 -13.185 -13.974  1.00  0.00     0.261 C 
HETATM   25  O   LIG     1     -23.581 -12.413 -13.221  1.00  0.00    -0.265 OA
BRANCH  24  26
HETATM   26  O   LIG     1     -22.979 -13.119 -15.335  1.00  0.00    -0.318 OA
BRANCH  26  27
HETATM   27  C   LIG     1     -24.117 -12.498 -15.940  1.00  0.00     0.205 C 
BRANCH  27  28
HETATM   28  C   LIG     1     -23.988 -12.596 -17.423  1.00  0.00    -0.011 C 
HETATM   29  C   LIG     1     -23.858 -13.749 -18.088  1.00  0.00     0.009 C 
ENDBRANCH  27  28
ENDBRANCH  26  27
ENDBRANCH  24  26
ENDBRANCH  23  24
ENDBRANCH  19  23
ENDBRANCH   3  19
TORSDOF 14
ENDMDL
MODEL 8
REMARK VINA RESULT:      -7.6      2.033      5.795
REMARK  14 active torsions:
REMARK  status: ('A' for Active; 'I' for Inactive)
REMARK    1  A    between atoms: O_1  and  C_14 
REMARK    2  A    between atoms: O_1  and  C_21 
REMARK    3  A    between atoms: O_4  and  C_17 
REMARK    4  A    between atoms: O_4  and  C_22 
REMARK    5  A    between atoms: N_6  and  C_8 
REMARK       I    between atoms: N_6  and  C_12 
REMARK    6  A    between atoms: N_7  and  C_10 
REMARK    7  A    between atoms: C_8  and  C_9 
REMARK    8  A    between atoms: C_8  and  C_14 
REMARK    9  A    between atoms: C_9  and  C_11 
REMARK   10  A    between atoms: C_10  and  C_12 
REMARK   11  A    between atoms: C_10  and  C_13 
REMARK   12  A    between atoms: C_13  and  C_17 
REMARK   13  A    between atoms: C_21  and  C_23 
REMARK   14  A    between atoms: C_22  and  C_24 
ROOT
HETATM    1  O   LIG     1     -18.897 -16.615 -13.659  1.00  0.00    -0.271 OA
HETATM    2  N   LIG     1     -19.244 -15.744 -11.535  1.00  0.00    -0.345 N 
HETATM    3  C   LIG     1     -18.783 -15.702 -12.844  1.00  0.00     0.252 C 
HETATM    4  H   LIG     1     -19.089 -14.944 -10.928  1.00  0.00     0.163 HD
ENDROOT
BRANCH   2   5
HETATM    5  C   LIG     1     -19.924 -16.886 -10.971  1.00  0.00     0.188 C 
BRANCH   5   6
HETATM    6  C   LIG     1     -18.926 -17.892 -10.377  1.00  0.00     0.074 C 
BRANCH   6   7
HETATM    7  C   LIG     1     -19.057 -19.302 -10.909  1.00  0.00    -0.056 A 
HETATM    8  C   LIG     1     -19.248 -19.518 -12.274  1.00  0.00     0.007 A 
HETATM    9  C   LIG     1     -19.370 -20.818 -12.764  1.00  0.00     0.001 A 
HETATM   10  C   LIG     1     -19.301 -21.902 -11.889  1.00  0.00     0.000 A 
HETATM   11  C   LIG     1     -19.110 -21.686 -10.524  1.00  0.00     0.001 A 
HETATM   12  C   LIG     1     -18.988 -20.386 -10.035  1.00  0.00     0.007 A 
ENDBRANCH   6   7
ENDBRANCH   5   6
BRANCH   5  13
HETATM   13  C   LIG     1     -20.995 -16.485  -9.965  1.00  0.00     0.282 C 
HETATM   14  O   LIG     1     -21.660 -15.461 -10.080  1.00  0.00    -0.263 OA
BRANCH  13  15
HETATM   15  O   LIG     1     -21.100 -17.379  -8.942  1.00  0.00    -0.316 OA
BRANCH  15  16
HETATM   16  C   LIG     1     -21.365 -16.819  -7.651  1.00  0.00     0.205 C 
BRANCH  16  17
HETATM   17  C   LIG     1     -22.751 -17.191  -7.243  1.00  0.00    -0.011 C 
HETATM   18  C   LIG     1     -23.075 -17.649  -6.029  1.00  0.00     0.009 C 
ENDBRANCH  16  17
ENDBRANCH  15  16
ENDBRANCH  13  15
ENDBRANCH   5  13
ENDBRANCH   2   5
BRANCH   3  19
HETATM   19  C   LIG     1     -18.076 -14.388 -13.166  1.00  0.00     0.318 C 
BRANCH  19  20
HETATM   20  N   LIG     1     -17.665 -14.458 -14.569  1.00  0.00     0.092 N 
HETATM   21  H   LIG     1     -16.717 -14.096 -14.666  1.00  0.00     0.313 HD
HETATM   22  H   LIG     1     -17.627 -15.433 -14.864  1.00  0.00     0.313 HD
ENDBRANCH  19  20
BRANCH  19  23
HETATM   23  C   LIG     1     -19.033 -13.213 -12.961  1.00  0.00     0.156 C 
BRANCH  23  24
HETATM   24  C   LIG     1     -20.292 -13.392 -13.776  1.00  0.00     0.261 C 
HETATM   25  O   LIG     1     -20.322 -13.349 -15.000  1.00  0.00    -0.265 OA
BRANCH  24  26
HETATM   26  O   LIG     1     -21.351 -13.635 -12.953  1.00  0.00    -0.318 OA
BRANCH  26  27
HETATM   27  C   LIG     1     -22.507 -14.193 -13.584  1.00  0.00     0.205 C 
BRANCH  27  28
HETATM   28  C   LIG     1     -22.437 -15.680 -13.488  1.00  0.00    -0.011 C 
HETATM   29  C   LIG     1     -22.703 -16.508 -14.505  1.00  0.00     0.009 C 
ENDBRANCH  27  28
ENDBRANCH  26  27
ENDBRANCH  24  26
ENDBRANCH  23  24
ENDBRANCH  19  23
ENDBRANCH   3  19
TORSDOF 14
ENDMDL
MODEL 9
REMARK VINA RESULT:      -7.5      1.682      2.368
REMARK  14 active torsions:
REMARK  status: ('A' for Active; 'I' for Inactive)
REMARK    1  A    between atoms: O_1  and  C_14 
REMARK    2  A    between atoms: O_1  and  C_21 
REMARK    3  A    between atoms: O_4  and  C_17 
REMARK    4  A    between atoms: O_4  and  C_22 
REMARK    5  A    between atoms: N_6  and  C_8 
REMARK       I    between atoms: N_6  and  C_12 
REMARK    6  A    between atoms: N_7  and  C_10 
REMARK    7  A    between atoms: C_8  and  C_9 
REMARK    8  A    between atoms: C_8  and  C_14 
REMARK    9  A    between atoms: C_9  and  C_11 
REMARK   10  A    between atoms: C_10  and  C_12 
REMARK   11  A    between atoms: C_10  and  C_13 
REMARK   12  A    between atoms: C_13  and  C_17 
REMARK   13  A    between atoms: C_21  and  C_23 
REMARK   14  A    between atoms: C_22  and  C_24 
ROOT
HETATM    1  O   LIG     1     -21.497 -16.511 -12.158  1.00  0.00    -0.271 OA
HETATM    2  N   LIG     1     -20.196 -15.144 -10.806  1.00  0.00    -0.345 N 
HETATM    3  C   LIG     1     -20.398 -16.123 -11.768  1.00  0.00     0.252 C 
HETATM    4  H   LIG     1     -19.247 -14.901 -10.535  1.00  0.00     0.163 HD
ENDROOT
BRANCH   2   5
HETATM    5  C   LIG     1     -21.276 -14.453 -10.140  1.00  0.00     0.188 C 
BRANCH   5   6
HETATM    6  C   LIG     1     -21.201 -14.638  -8.617  1.00  0.00     0.074 C 
BRANCH   6   7
HETATM    7  C   LIG     1     -22.311 -15.477  -8.026  1.00  0.00    -0.056 A 
HETATM    8  C   LIG     1     -22.037 -16.364  -6.984  1.00  0.00     0.007 A 
HETATM    9  C   LIG     1     -23.062 -17.139  -6.440  1.00  0.00     0.001 A 
HETATM   10  C   LIG     1     -24.359 -17.028  -6.938  1.00  0.00     0.000 A 
HETATM   11  C   LIG     1     -24.634 -16.141  -7.979  1.00  0.00     0.001 A 
HETATM   12  C   LIG     1     -23.609 -15.366  -8.523  1.00  0.00     0.007 A 
ENDBRANCH   6   7
ENDBRANCH   5   6
BRANCH   5  13
HETATM   13  C   LIG     1     -21.354 -12.983 -10.533  1.00  0.00     0.282 C 
HETATM   14  O   LIG     1     -21.540 -12.089  -9.714  1.00  0.00    -0.263 OA
BRANCH  13  15
HETATM   15  O   LIG     1     -21.213 -12.802 -11.876  1.00  0.00    -0.316 OA
BRANCH  15  16
HETATM   16  C   LIG     1     -22.419 -12.874 -12.643  1.00  0.00     0.205 C 
BRANCH  16  17
HETATM   17  C   LIG     1     -22.122 -13.549 -13.940  1.00  0.00    -0.011 C 
HETATM   18  C   LIG     1     -20.908 -13.597 -14.498  1.00  0.00     0.009 C 
ENDBRANCH  16  17
ENDBRANCH  15  16
ENDBRANCH  13  15
ENDBRANCH   5  13
ENDBRANCH   2   5
BRANCH   3  19
HETATM   19  C   LIG     1     -19.084 -16.707 -12.283  1.00  0.00     0.318 C 
BRANCH  19  20
HETATM   20  N   LIG     1     -18.207 -15.577 -12.590  1.00  0.00     0.092 N 
HETATM   21  H   LIG     1     -17.282 -15.745 -12.197  1.00  0.00     0.313 HD
HETATM   22  H   LIG     1     -18.078 -15.512 -13.599  1.00  0.00     0.313 HD
ENDBRANCH  19  20
BRANCH  19  23
HETATM   23  C   LIG     1     -18.444 -17.586 -11.208  1.00  0.00     0.156 C 
BRANCH  23  24
HETATM   24  C   LIG     1     -18.959 -19.003 -11.290  1.00  0.00     0.261 C 
HETATM   25  O   LIG     1     -19.309 -19.659 -10.317  1.00  0.00    -0.265 OA
BRANCH  24  26
HETATM   26  O   LIG     1     -19.001 -19.410 -12.591  1.00  0.00    -0.318 OA
BRANCH  26  27
HETATM   27  C   LIG     1     -19.496 -20.735 -12.807  1.00  0.00     0.205 C 
BRANCH  27  28
HETATM   28  C   LIG     1     -20.190 -20.779 -14.128  1.00  0.00    -0.011 C 
HETATM   29  C   LIG     1     -21.312 -21.469 -14.360  1.00  0.00     0.009 C 
ENDBRANCH  27  28
ENDBRANCH  26  27
ENDBRANCH  24  26
ENDBRANCH  23  24
ENDBRANCH  19  23
ENDBRANCH   3  19
TORSDOF 14
ENDMDL
