MODEL 1
REMARK VINA RESULT:      -9.0      0.000      0.000
REMARK  1 active torsions:
REMARK  status: ('A' for Active; 'I' for Inactive)
REMARK    1  A    between atoms: C_7  and  C_21 
ROOT
HETATM    1  O   LIG     1     -22.852 -13.205 -17.110  1.00  0.00    -0.291 OA
HETATM    2  C   LIG     1     -21.706 -14.570  -9.679  1.00  0.00     0.000 C 
HETATM    3  C   LIG     1     -22.203 -15.922  -9.123  1.00  0.00     0.006 C 
HETATM    4  C   LIG     1     -21.207 -14.667 -11.125  1.00  0.00     0.001 C 
HETATM    5  C   LIG     1     -22.377 -15.167 -12.029  1.00  0.00     0.004 C 
HETATM    6  C   LIG     1     -21.977 -15.261 -13.552  1.00  0.00     0.016 C 
HETATM    7  C   LIG     1     -22.559 -15.484  -7.685  1.00  0.00     0.058 C 
HETATM    8  C   LIG     1     -23.399 -16.366  -9.976  1.00  0.00     0.000 C 
HETATM    9  C   LIG     1     -23.030 -16.460 -11.467  1.00  0.00     0.000 C 
HETATM   10  C   LIG     1     -20.752 -14.073  -8.598  1.00  0.00     0.000 C 
HETATM   11  C   LIG     1     -20.692 -13.313 -11.632  1.00  0.00     0.004 C 
HETATM   12  C   LIG     1     -21.419 -14.525  -7.286  1.00  0.00     0.007 C 
HETATM   13  C   LIG     1     -21.306 -13.952 -13.987  1.00  0.00    -0.042 C 
HETATM   14  C   LIG     1     -21.122 -17.034  -9.115  1.00  0.00     0.000 C 
HETATM   15  C   LIG     1     -20.228 -13.408 -13.079  1.00  0.00     0.022 C 
HETATM   16  C   LIG     1     -23.271 -15.498 -14.383  1.00  0.00     0.012 C 
HETATM   17  C   LIG     1     -20.991 -16.421 -13.819  1.00  0.00     0.004 C 
HETATM   18  C   LIG     1     -23.096 -15.239 -15.871  1.00  0.00     0.070 C 
HETATM   19  C   LIG     1     -21.606 -13.295 -15.120  1.00  0.00     0.029 C 
HETATM   20  C   LIG     1     -22.566 -13.849 -16.103  1.00  0.00     0.172 C 
ENDROOT
BRANCH   7  21
HETATM   21  C   LIG     1     -22.720 -16.614  -6.716  1.00  0.00     0.151 C 
HETATM   22  O   LIG     1     -21.760 -17.081  -6.106  1.00  0.00    -0.296 OA
HETATM   23  C   LIG     1     -24.113 -17.148  -6.525  1.00  0.00     0.072 C 
ENDBRANCH   7  21
TORSDOF 1
ENDMDL
