MODEL 1
REMARK VINA RESULT:      -9.0      0.000      0.000
REMARK  3 active torsions:
REMARK  status: ('A' for Active; 'I' for Inactive)
REMARK    1  A    between atoms: C_4  and  O_11 
REMARK    2  A    between atoms: O_11  and  C_12 
REMARK    3  A    between atoms: C_12  and  C_13 
ROOT
HETATM    1  N   LIG     1     -23.657 -23.980 -15.168  1.00  0.00    -0.244 NA
HETATM    2  C   LIG     1     -24.674 -21.816 -15.468  1.00  0.00     0.018 A 
HETATM    3  C   LIG     1     -23.572 -22.636 -15.150  1.00  0.00     0.083 A 
HETATM    4  C   LIG     1     -22.246 -20.627 -14.785  1.00  0.00     0.096 A 
HETATM    5  C   LIG     1     -22.371 -22.018 -14.813  1.00  0.00     0.043 A 
HETATM    6  C   LIG     1     -24.549 -20.416 -15.439  1.00  0.00     0.004 A 
HETATM    7  C   LIG     1     -23.336 -19.826 -15.098  1.00  0.00     0.024 A 
HETATM    8  C   LIG     1     -25.883 -22.438 -15.808  1.00  0.00     0.003 A 
HETATM    9  C   LIG     1     -25.975 -23.822 -15.827  1.00  0.00     0.021 A 
HETATM   10  C   LIG     1     -24.842 -24.541 -15.501  1.00  0.00     0.099 A 
ENDROOT
BRANCH   4  11
HETATM   11  O   LIG     1     -21.056 -20.058 -14.449  1.00  0.00    -0.326 OA
BRANCH  11  12
HETATM   12  C   LIG     1     -19.951 -20.936 -14.242  1.00  0.00     0.175 C 
BRANCH  12  13
HETATM   13  C   LIG     1     -19.557 -20.894 -12.794  1.00  0.00     0.008 A 
HETATM   14  C   LIG     1     -19.355 -19.667 -12.172  1.00  0.00    -0.002 A 
HETATM   15  C   LIG     1     -18.988 -19.628 -10.826  1.00  0.00    -0.000 A 
HETATM   16  C   LIG     1     -18.826 -20.816 -10.113  1.00  0.00    -0.000 A 
HETATM   17  C   LIG     1     -19.031 -22.042 -10.744  1.00  0.00    -0.000 A 
HETATM   18  C   LIG     1     -19.397 -22.082 -12.089  1.00  0.00    -0.002 A 
ENDBRANCH  12  13
ENDBRANCH  11  12
ENDBRANCH   4  11
TORSDOF 3
ENDMDL
