MODEL 1
REMARK VINA RESULT:      -8.3      0.000      0.000
REMARK  1 active torsions:
REMARK  status: ('A' for Active; 'I' for Inactive)
REMARK    1  A    between atoms: C_7  and  C_10 
ROOT
HETATM    1 CL   LIG     1     -22.005 -16.179 -10.188  1.00  0.00    -0.084 Cl
HETATM    2  O   LIG     1     -24.194 -14.059 -17.689  1.00  0.00    -0.271 OA
HETATM    3  N   LIG     1     -22.872 -14.215 -15.776  1.00  0.00    -0.320 N 
HETATM    4  N   LIG     1     -24.866 -16.505 -15.744  1.00  0.00    -0.279 NA
HETATM    5  C   LIG     1     -23.208 -15.960 -14.012  1.00  0.00     0.022 A 
HETATM    6  C   LIG     1     -22.658 -14.738 -14.455  1.00  0.00     0.049 A 
HETATM    7  C   LIG     1     -23.950 -16.884 -14.920  1.00  0.00     0.074 C 
HETATM    8  C   LIG     1     -25.181 -15.093 -15.798  1.00  0.00     0.252 C 
HETATM    9  C   LIG     1     -24.039 -14.424 -16.522  1.00  0.00     0.243 C 
HETATM   10  C   LIG     1     -23.016 -16.389 -12.686  1.00  0.00     0.040 A 
HETATM   11  C   LIG     1     -21.853 -14.020 -13.549  1.00  0.00     0.032 A 
HETATM   12  C   LIG     1     -21.836 -13.359 -16.354  1.00  0.00     0.159 C 
HETATM   13  C   LIG     1     -22.241 -15.640 -11.804  1.00  0.00     0.035 A 
HETATM   14  C   LIG     1     -21.650 -14.462 -12.240  1.00  0.00     0.026 A 
ENDROOT
BRANCH   7  15
HETATM   15  C   LIG     1     -23.613 -18.337 -14.902  1.00  0.00    -0.007 A 
HETATM   16  C   LIG     1     -24.635 -19.279 -14.927  1.00  0.00     0.014 A 
HETATM   17  C   LIG     1     -24.319 -20.638 -14.911  1.00  0.00     0.001 A 
HETATM   18  C   LIG     1     -22.986 -21.044 -14.870  1.00  0.00     0.000 A 
HETATM   19  C   LIG     1     -21.967 -20.092 -14.844  1.00  0.00     0.001 A 
HETATM   20  C   LIG     1     -22.282 -18.733 -14.860  1.00  0.00     0.014 A 
ENDBRANCH   7  15
TORSDOF 1
ENDMDL
