MODEL 1
REMARK VINA RESULT:      -9.4      0.000      0.000
REMARK  1 active torsions:
REMARK  status: ('A' for Active; 'I' for Inactive)
REMARK    1  A    between atoms: O_4  and  C_17 
ROOT
HETATM    1  O   LIG     1     -23.020 -23.339 -15.019  1.00  0.00    -0.318 OA
HETATM    2  O   LIG     1     -24.540 -24.043 -16.722  1.00  0.00    -0.331 OA
HETATM    3  O   LIG     1     -24.795 -18.986 -15.309  1.00  0.00    -0.273 OA
HETATM    4  O   LIG     1     -23.747 -14.703 -14.808  1.00  0.00    -0.292 OA
HETATM    5  O   LIG     1     -25.696 -16.881 -15.467  1.00  0.00    -0.259 OA
HETATM    6  C   LIG     1     -25.007 -21.984 -15.513  1.00  0.00     0.105 A 
HETATM    7  C   LIG     1     -23.825 -21.176 -15.146  1.00  0.00     0.023 A 
HETATM    8  C   LIG     1     -24.408 -23.407 -15.428  1.00  0.00     0.284 A 
HETATM    9  C   LIG     1     -23.677 -19.805 -15.036  1.00  0.00     0.103 A 
HETATM   10  C   LIG     1     -22.445 -19.253 -14.659  1.00  0.00     0.039 A 
HETATM   11  C   LIG     1     -22.750 -22.004 -14.876  1.00  0.00     0.084 A 
HETATM   12  C   LIG     1     -22.357 -17.804 -14.563  1.00  0.00    -0.022 A 
HETATM   13  C   LIG     1     -21.132 -17.042 -14.178  1.00  0.00     0.048 A 
HETATM   14  C   LIG     1     -25.419 -21.924 -16.931  1.00  0.00     0.012 A 
HETATM   15  C   LIG     1     -23.431 -17.061 -14.832  1.00  0.00     0.092 A 
HETATM   16  C   LIG     1     -21.366 -20.116 -14.393  1.00  0.00     0.084 A 
HETATM   17  C   LIG     1     -21.568 -15.579 -14.230  1.00  0.00     0.089 A 
HETATM   18  C   LIG     1     -21.516 -21.503 -14.500  1.00  0.00     0.075 A 
HETATM   19  C   LIG     1     -23.011 -15.665 -14.644  1.00  0.00     0.166 A 
HETATM   20  C   LIG     1     -25.140 -23.085 -17.509  1.00  0.00     0.135 A 
HETATM   21  C   LIG     1     -24.733 -17.596 -15.226  1.00  0.00     0.302 A 
ENDROOT
BRANCH  16  22
HETATM   22  O   LIG     1     -20.134 -19.662 -14.018  1.00  0.00    -0.355 OA
HETATM   23  C   LIG     1     -19.454 -20.400 -13.007  1.00  0.00     0.210 C 
ENDBRANCH  16  22
TORSDOF 1
ENDMDL
