MODEL 1
REMARK VINA RESULT:      -9.5      0.000      0.000
REMARK  1 active torsions:
REMARK  status: ('A' for Active; 'I' for Inactive)
REMARK    1  A    between atoms: C_7  and  C_21 
ROOT
HETATM    1  O   LIG     1     -18.993 -22.264 -10.660  1.00  0.00    -0.291 OA
HETATM    2  C   LIG     1     -21.499 -15.312 -12.601  1.00  0.00     0.000 C 
HETATM    3  C   LIG     1     -21.504 -14.228 -11.501  1.00  0.00     0.006 C 
HETATM    4  C   LIG     1     -20.334 -16.297 -12.464  1.00  0.00     0.001 C 
HETATM    5  C   LIG     1     -20.436 -17.008 -11.078  1.00  0.00     0.004 C 
HETATM    6  C   LIG     1     -19.300 -18.079 -10.853  1.00  0.00     0.016 C 
HETATM    7  C   LIG     1     -22.727 -13.407 -11.965  1.00  0.00     0.058 C 
HETATM    8  C   LIG     1     -21.678 -14.935 -10.151  1.00  0.00     0.000 C 
HETATM    9  C   LIG     1     -20.580 -15.988  -9.915  1.00  0.00     0.000 C 
HETATM   10  C   LIG     1     -21.642 -14.508 -13.889  1.00  0.00     0.000 C 
HETATM   11  C   LIG     1     -20.344 -17.338 -13.591  1.00  0.00     0.004 C 
HETATM   12  C   LIG     1     -22.594 -13.361 -13.501  1.00  0.00     0.007 C 
HETATM   13  C   LIG     1     -19.218 -19.002 -12.076  1.00  0.00    -0.042 C 
HETATM   14  C   LIG     1     -20.222 -13.354 -11.474  1.00  0.00     0.000 C 
HETATM   15  C   LIG     1     -19.204 -18.334 -13.431  1.00  0.00     0.022 C 
HETATM   16  C   LIG     1     -19.653 -18.907  -9.584  1.00  0.00     0.012 C 
HETATM   17  C   LIG     1     -17.916 -17.419 -10.653  1.00  0.00     0.004 C 
HETATM   18  C   LIG     1     -18.860 -20.198  -9.458  1.00  0.00     0.070 C 
HETATM   19  C   LIG     1     -19.136 -20.342 -12.001  1.00  0.00     0.029 C 
HETATM   20  C   LIG     1     -19.023 -21.036 -10.699  1.00  0.00     0.172 C 
ENDROOT
BRANCH   7  21
HETATM   21  C   LIG     1     -22.820 -12.040 -11.360  1.00  0.00     0.151 C 
HETATM   22  O   LIG     1     -21.816 -11.417 -11.017  1.00  0.00    -0.296 OA
HETATM   23  C   LIG     1     -24.201 -11.467 -11.193  1.00  0.00     0.072 C 
ENDBRANCH   7  21
TORSDOF 1
ENDMDL
