MODEL 1
REMARK VINA RESULT:      -8.7      0.000      0.000
REMARK  3 active torsions:
REMARK  status: ('A' for Active; 'I' for Inactive)
REMARK    1  A    between atoms: C_4  and  O_11 
REMARK    2  A    between atoms: O_11  and  C_12 
REMARK    3  A    between atoms: C_12  and  C_13 
ROOT
HETATM    1  N   LIG     1     -19.166 -21.051  -9.954  1.00  0.00    -0.244 NA
HETATM    2  C   LIG     1     -19.265 -19.293 -11.597  1.00  0.00     0.018 A 
HETATM    3  C   LIG     1     -19.238 -19.743 -10.261  1.00  0.00     0.083 A 
HETATM    4  C   LIG     1     -19.359 -17.424  -9.530  1.00  0.00     0.096 A 
HETATM    5  C   LIG     1     -19.285 -18.790  -9.247  1.00  0.00     0.043 A 
HETATM    6  C   LIG     1     -19.340 -17.918 -11.882  1.00  0.00     0.004 A 
HETATM    7  C   LIG     1     -19.387 -16.987 -10.849  1.00  0.00     0.024 A 
HETATM    8  C   LIG     1     -19.217 -20.251 -12.618  1.00  0.00     0.003 A 
HETATM    9  C   LIG     1     -19.143 -21.601 -12.305  1.00  0.00     0.021 A 
HETATM   10  C   LIG     1     -19.121 -21.945 -10.968  1.00  0.00     0.099 A 
ENDROOT
BRANCH   4  11
HETATM   11  O   LIG     1     -19.406 -16.520  -8.512  1.00  0.00    -0.326 OA
BRANCH  11  12
HETATM   12  C   LIG     1     -20.432 -15.531  -8.568  1.00  0.00     0.175 C 
BRANCH  12  13
HETATM   13  C   LIG     1     -21.670 -16.073  -7.917  1.00  0.00     0.008 A 
HETATM   14  C   LIG     1     -22.916 -15.788  -8.464  1.00  0.00    -0.002 A 
HETATM   15  C   LIG     1     -24.068 -16.292  -7.858  1.00  0.00    -0.000 A 
HETATM   16  C   LIG     1     -23.965 -17.077  -6.710  1.00  0.00    -0.000 A 
HETATM   17  C   LIG     1     -22.712 -17.359  -6.168  1.00  0.00    -0.000 A 
HETATM   18  C   LIG     1     -21.561 -16.856  -6.773  1.00  0.00    -0.002 A 
ENDBRANCH  12  13
ENDBRANCH  11  12
ENDBRANCH   4  11
TORSDOF 3
ENDMDL
