MODEL 1
REMARK VINA RESULT:      -9.4      0.000      0.000
REMARK  1 active torsions:
REMARK  status: ('A' for Active; 'I' for Inactive)
REMARK    1  A    between atoms: O_1  and  C_10 
ROOT
HETATM    1  O   LIG     1     -19.128 -21.907 -10.658  1.00  0.00    -0.293 OA
HETATM    2  C   LIG     1     -21.416 -15.087 -13.230  1.00  0.00     0.001 C 
HETATM    3  C   LIG     1     -21.450 -13.927 -12.216  1.00  0.00    -0.014 C 
HETATM    4  C   LIG     1     -20.275 -16.073 -12.962  1.00  0.00    -0.004 C 
HETATM    5  C   LIG     1     -20.457 -16.676 -11.533  1.00  0.00     0.002 C 
HETATM    6  C   LIG     1     -19.351 -17.742 -11.174  1.00  0.00    -0.016 C 
HETATM    7  C   LIG     1     -21.702 -14.521 -10.824  1.00  0.00     0.012 C 
HETATM    8  C   LIG     1     -20.638 -15.570 -10.456  1.00  0.00     0.007 C 
HETATM    9  C   LIG     1     -22.628 -13.121 -12.795  1.00  0.00     0.126 C 
HETATM   10  C   LIG     1     -21.488 -14.381 -14.581  1.00  0.00     0.008 C 
HETATM   11  C   LIG     1     -20.249 -17.195 -14.007  1.00  0.00     0.010 C 
HETATM   12  C   LIG     1     -22.396 -13.165 -14.319  1.00  0.00     0.033 C 
HETATM   13  C   LIG     1     -19.225 -18.756 -12.319  1.00  0.00    -0.068 C 
HETATM   14  C   LIG     1     -19.134 -18.191 -13.718  1.00  0.00     0.035 C 
HETATM   15  C   LIG     1     -20.167 -13.059 -12.184  1.00  0.00     0.018 C 
HETATM   16  C   LIG     1     -19.779 -18.468  -9.866  1.00  0.00     0.022 C 
HETATM   17  C   LIG     1     -17.967 -17.089 -10.954  1.00  0.00     0.020 C 
HETATM   18  C   LIG     1     -19.016 -19.758  -9.606  1.00  0.00     0.084 C 
HETATM   19  C   LIG     1     -19.170 -20.086 -12.142  1.00  0.00     0.053 C 
HETATM   20  C   LIG     1     -19.134 -20.684 -10.787  1.00  0.00     0.149 C 
ENDROOT
BRANCH   9  21
HETATM   21  O   LIG     1     -22.680 -11.793 -12.312  1.00  0.00    -0.395 OA
HETATM   22  H   LIG     1     -23.484 -11.366 -12.649  1.00  0.00     0.210 HD
ENDBRANCH   9  21
TORSDOF 1
ENDMDL
