MODEL 1
REMARK VINA RESULT:      -8.8      0.000      0.000
REMARK  1 active torsions:
REMARK  status: ('A' for Active; 'I' for Inactive)
REMARK    1  A    between atoms: C_7  and  C_21 
ROOT
HETATM    1  O   LIG     1     -21.524 -14.487  -6.675  1.00  0.00    -0.291 OA
HETATM    2  C   LIG     1     -23.259 -14.950 -14.103  1.00  0.00     0.000 C 
HETATM    3  C   LIG     1     -23.216 -13.642 -14.922  1.00  0.00     0.006 C 
HETATM    4  C   LIG     1     -22.201 -14.996 -12.996  1.00  0.00     0.001 C 
HETATM    5  C   LIG     1     -22.439 -13.800 -12.021  1.00  0.00     0.004 C 
HETATM    6  C   LIG     1     -21.423 -13.779 -10.816  1.00  0.00     0.016 C 
HETATM    7  C   LIG     1     -24.331 -13.952 -15.945  1.00  0.00     0.058 C 
HETATM    8  C   LIG     1     -23.525 -12.482 -13.966  1.00  0.00     0.000 C 
HETATM    9  C   LIG     1     -22.545 -12.448 -12.780  1.00  0.00     0.000 C 
HETATM   10  C   LIG     1     -23.260 -16.037 -15.172  1.00  0.00     0.000 C 
HETATM   11  C   LIG     1     -22.253 -16.321 -12.224  1.00  0.00     0.004 C 
HETATM   12  C   LIG     1     -24.117 -15.438 -16.302  1.00  0.00     0.007 C 
HETATM   13  C   LIG     1     -21.367 -15.170 -10.170  1.00  0.00    -0.042 C 
HETATM   14  C   LIG     1     -21.861 -13.390 -15.633  1.00  0.00     0.000 C 
HETATM   15  C   LIG     1     -21.221 -16.347 -11.105  1.00  0.00     0.022 C 
HETATM   16  C   LIG     1     -21.916 -12.730  -9.778  1.00  0.00     0.012 C 
HETATM   17  C   LIG     1     -19.995 -13.402 -11.270  1.00  0.00     0.004 C 
HETATM   18  C   LIG     1     -21.256 -12.864  -8.414  1.00  0.00     0.070 C 
HETATM   19  C   LIG     1     -21.417 -15.384  -8.843  1.00  0.00     0.029 C 
HETATM   20  C   LIG     1     -21.436 -14.260  -7.880  1.00  0.00     0.172 C 
ENDROOT
BRANCH   7  21
HETATM   21  C   LIG     1     -24.325 -13.069 -17.155  1.00  0.00     0.151 C 
HETATM   22  O   LIG     1     -24.620 -11.877 -17.083  1.00  0.00    -0.296 OA
HETATM   23  C   LIG     1     -23.938 -13.710 -18.459  1.00  0.00     0.072 C 
ENDBRANCH   7  21
TORSDOF 1
ENDMDL
