MODEL 1
REMARK VINA RESULT:      -8.3      0.000      0.000
REMARK  14 active torsions:
REMARK  status: ('A' for Active; 'I' for Inactive)
REMARK    1  A    between atoms: O_1  and  C_14 
REMARK    2  A    between atoms: O_1  and  C_21 
REMARK    3  A    between atoms: O_4  and  C_17 
REMARK    4  A    between atoms: O_4  and  C_22 
REMARK    5  A    between atoms: N_6  and  C_8 
REMARK       I    between atoms: N_6  and  C_12 
REMARK    6  A    between atoms: N_7  and  C_10 
REMARK    7  A    between atoms: C_8  and  C_9 
REMARK    8  A    between atoms: C_8  and  C_14 
REMARK    9  A    between atoms: C_9  and  C_11 
REMARK   10  A    between atoms: C_10  and  C_12 
REMARK   11  A    between atoms: C_10  and  C_13 
REMARK   12  A    between atoms: C_13  and  C_17 
REMARK   13  A    between atoms: C_21  and  C_23 
REMARK   14  A    between atoms: C_22  and  C_24 
ROOT
HETATM    1  O   LIG     1     -20.171 -15.923 -13.489  1.00  0.00    -0.271 OA
HETATM    2  N   LIG     1     -19.437 -15.526 -11.323  1.00  0.00    -0.345 N 
HETATM    3  C   LIG     1     -19.646 -15.191 -12.653  1.00  0.00     0.252 C 
HETATM    4  H   LIG     1     -18.978 -14.860 -10.708  1.00  0.00     0.163 HD
ENDROOT
BRANCH   2   5
HETATM    5  C   LIG     1     -19.821 -16.799 -10.757  1.00  0.00     0.188 C 
BRANCH   5   6
HETATM    6  C   LIG     1     -18.660 -17.803 -10.802  1.00  0.00     0.074 C 
BRANCH   6   7
HETATM    7  C   LIG     1     -18.983 -19.114 -11.483  1.00  0.00    -0.056 A 
HETATM    8  C   LIG     1     -19.069 -20.287 -10.733  1.00  0.00     0.007 A 
HETATM    9  C   LIG     1     -19.366 -21.496 -11.362  1.00  0.00     0.001 A 
HETATM   10  C   LIG     1     -19.577 -21.532 -12.740  1.00  0.00     0.000 A 
HETATM   11  C   LIG     1     -19.492 -20.359 -13.490  1.00  0.00     0.001 A 
HETATM   12  C   LIG     1     -19.194 -19.150 -12.861  1.00  0.00     0.007 A 
ENDBRANCH   6   7
ENDBRANCH   5   6
BRANCH   5  13
HETATM   13  C   LIG     1     -20.401 -16.659  -9.355  1.00  0.00     0.282 C 
HETATM   14  O   LIG     1     -19.719 -16.342  -8.386  1.00  0.00    -0.263 OA
BRANCH  13  15
HETATM   15  O   LIG     1     -21.733 -16.943  -9.319  1.00  0.00    -0.316 OA
BRANCH  15  16
HETATM   16  C   LIG     1     -22.208 -17.544  -8.110  1.00  0.00     0.205 C 
BRANCH  16  17
HETATM   17  C   LIG     1     -23.259 -16.664  -7.518  1.00  0.00    -0.011 C 
HETATM   18  C   LIG     1     -24.329 -16.225  -8.187  1.00  0.00     0.009 C 
ENDBRANCH  16  17
ENDBRANCH  15  16
ENDBRANCH  13  15
ENDBRANCH   5  13
ENDBRANCH   2   5
BRANCH   3  19
HETATM   19  C   LIG     1     -19.116 -13.799 -12.988  1.00  0.00     0.318 C 
BRANCH  19  20
HETATM   20  N   LIG     1     -19.209 -13.645 -14.440  1.00  0.00     0.092 N 
HETATM   21  H   LIG     1     -18.355 -13.216 -14.794  1.00  0.00     0.313 HD
HETATM   22  H   LIG     1     -19.265 -14.565 -14.877  1.00  0.00     0.313 HD
ENDBRANCH  19  20
BRANCH  19  23
HETATM   23  C   LIG     1     -19.966 -12.733 -12.296  1.00  0.00     0.156 C 
BRANCH  23  24
HETATM   24  C   LIG     1     -21.432 -12.925 -12.606  1.00  0.00     0.261 C 
HETATM   25  O   LIG     1     -21.881 -13.022 -13.741  1.00  0.00    -0.265 OA
BRANCH  24  26
HETATM   26  O   LIG     1     -22.148 -13.002 -11.449  1.00  0.00    -0.318 OA
BRANCH  26  27
HETATM   27  C   LIG     1     -21.459 -12.581 -10.267  1.00  0.00     0.205 C 
BRANCH  27  28
HETATM   28  C   LIG     1     -22.039 -13.294  -9.092  1.00  0.00    -0.011 C 
HETATM   29  C   LIG     1     -21.447 -13.368  -7.895  1.00  0.00     0.009 C 
ENDBRANCH  27  28
ENDBRANCH  26  27
ENDBRANCH  24  26
ENDBRANCH  23  24
ENDBRANCH  19  23
ENDBRANCH   3  19
TORSDOF 14
ENDMDL
MODEL 2
REMARK VINA RESULT:      -8.0      2.059      5.821
REMARK  14 active torsions:
REMARK  status: ('A' for Active; 'I' for Inactive)
REMARK    1  A    between atoms: O_1  and  C_14 
REMARK    2  A    between atoms: O_1  and  C_21 
REMARK    3  A    between atoms: O_4  and  C_17 
REMARK    4  A    between atoms: O_4  and  C_22 
REMARK    5  A    between atoms: N_6  and  C_8 
REMARK       I    between atoms: N_6  and  C_12 
REMARK    6  A    between atoms: N_7  and  C_10 
REMARK    7  A    between atoms: C_8  and  C_9 
REMARK    8  A    between atoms: C_8  and  C_14 
REMARK    9  A    between atoms: C_9  and  C_11 
REMARK   10  A    between atoms: C_10  and  C_12 
REMARK   11  A    between atoms: C_10  and  C_13 
REMARK   12  A    between atoms: C_13  and  C_17 
REMARK   13  A    between atoms: C_21  and  C_23 
REMARK   14  A    between atoms: C_22  and  C_24 
ROOT
HETATM    1  O   LIG     1     -22.688 -16.404 -12.927  1.00  0.00    -0.271 OA
HETATM    2  N   LIG     1     -20.849 -15.230 -12.134  1.00  0.00    -0.345 N 
HETATM    3  C   LIG     1     -21.485 -16.152 -12.953  1.00  0.00     0.252 C 
HETATM    4  H   LIG     1     -19.844 -15.101 -12.217  1.00  0.00     0.163 HD
ENDROOT
BRANCH   2   5
HETATM    5  C   LIG     1     -21.541 -14.446 -11.137  1.00  0.00     0.188 C 
BRANCH   5   6
HETATM    6  C   LIG     1     -20.975 -14.705  -9.732  1.00  0.00     0.074 C 
BRANCH   6   7
HETATM    7  C   LIG     1     -21.794 -15.652  -8.886  1.00  0.00    -0.056 A 
HETATM    8  C   LIG     1     -23.042 -15.256  -8.403  1.00  0.00     0.007 A 
HETATM    9  C   LIG     1     -23.797 -16.130  -7.621  1.00  0.00     0.001 A 
HETATM   10  C   LIG     1     -23.304 -17.400  -7.322  1.00  0.00     0.000 A 
HETATM   11  C   LIG     1     -22.057 -17.797  -7.805  1.00  0.00     0.001 A 
HETATM   12  C   LIG     1     -21.302 -16.922  -8.586  1.00  0.00     0.007 A 
ENDBRANCH   6   7
ENDBRANCH   5   6
BRANCH   5  13
HETATM   13  C   LIG     1     -21.562 -12.961 -11.479  1.00  0.00     0.282 C 
HETATM   14  O   LIG     1     -21.287 -12.090 -10.660  1.00  0.00    -0.263 OA
BRANCH  13  15
HETATM   15  O   LIG     1     -21.934 -12.736 -12.770  1.00  0.00    -0.316 OA
BRANCH  15  16
HETATM   16  C   LIG     1     -23.307 -12.388 -12.970  1.00  0.00     0.205 C 
BRANCH  16  17
HETATM   17  C   LIG     1     -23.676 -12.684 -14.385  1.00  0.00    -0.011 C 
HETATM   18  C   LIG     1     -22.905 -13.375 -15.230  1.00  0.00     0.009 C 
ENDBRANCH  16  17
ENDBRANCH  15  16
ENDBRANCH  13  15
ENDBRANCH   5  13
ENDBRANCH   2   5
BRANCH   3  19
HETATM   19  C   LIG     1     -20.511 -16.860 -13.892  1.00  0.00     0.318 C 
BRANCH  19  20
HETATM   20  N   LIG     1     -20.295 -15.969 -15.032  1.00  0.00     0.092 N 
HETATM   21  H   LIG     1     -21.194 -15.661 -15.400  1.00  0.00     0.313 HD
HETATM   22  H   LIG     1     -19.813 -15.127 -14.720  1.00  0.00     0.313 HD
ENDBRANCH  19  20
BRANCH  19  23
HETATM   23  C   LIG     1     -19.186 -17.119 -13.174  1.00  0.00     0.156 C 
BRANCH  23  24
HETATM   24  C   LIG     1     -19.147 -18.514 -12.597  1.00  0.00     0.261 C 
HETATM   25  O   LIG     1     -19.139 -19.532 -13.278  1.00  0.00    -0.265 OA
BRANCH  24  26
HETATM   26  O   LIG     1     -19.091 -18.455 -11.237  1.00  0.00    -0.318 OA
BRANCH  26  27
HETATM   27  C   LIG     1     -19.140 -19.716 -10.562  1.00  0.00     0.205 C 
BRANCH  27  28
HETATM   28  C   LIG     1     -18.859 -19.497  -9.113  1.00  0.00    -0.011 C 
HETATM   29  C   LIG     1     -19.219 -20.348  -8.145  1.00  0.00     0.009 C 
ENDBRANCH  27  28
ENDBRANCH  26  27
ENDBRANCH  24  26
ENDBRANCH  23  24
ENDBRANCH  19  23
ENDBRANCH   3  19
TORSDOF 14
ENDMDL
MODEL 3
REMARK VINA RESULT:      -8.0      2.283      3.381
REMARK  14 active torsions:
REMARK  status: ('A' for Active; 'I' for Inactive)
REMARK    1  A    between atoms: O_1  and  C_14 
REMARK    2  A    between atoms: O_1  and  C_21 
REMARK    3  A    between atoms: O_4  and  C_17 
REMARK    4  A    between atoms: O_4  and  C_22 
REMARK    5  A    between atoms: N_6  and  C_8 
REMARK       I    between atoms: N_6  and  C_12 
REMARK    6  A    between atoms: N_7  and  C_10 
REMARK    7  A    between atoms: C_8  and  C_9 
REMARK    8  A    between atoms: C_8  and  C_14 
REMARK    9  A    between atoms: C_9  and  C_11 
REMARK   10  A    between atoms: C_10  and  C_12 
REMARK   11  A    between atoms: C_10  and  C_13 
REMARK   12  A    between atoms: C_13  and  C_17 
REMARK   13  A    between atoms: C_21  and  C_23 
REMARK   14  A    between atoms: C_22  and  C_24 
ROOT
HETATM    1  O   LIG     1     -21.234 -16.033 -13.942  1.00  0.00    -0.271 OA
HETATM    2  N   LIG     1     -20.270 -15.127 -12.034  1.00  0.00    -0.345 N 
HETATM    3  C   LIG     1     -20.737 -15.083 -13.340  1.00  0.00     0.252 C 
HETATM    4  H   LIG     1     -19.858 -14.293 -11.624  1.00  0.00     0.163 HD
ENDROOT
BRANCH   2   5
HETATM    5  C   LIG     1     -20.317 -16.317 -11.215  1.00  0.00     0.188 C 
BRANCH   5   6
HETATM    6  C   LIG     1     -18.982 -17.075 -11.255  1.00  0.00     0.074 C 
BRANCH   6   7
HETATM    7  C   LIG     1     -19.098 -18.544 -11.594  1.00  0.00    -0.056 A 
HETATM    8  C   LIG     1     -19.019 -19.502 -10.582  1.00  0.00     0.007 A 
HETATM    9  C   LIG     1     -19.127 -20.857 -10.895  1.00  0.00     0.001 A 
HETATM   10  C   LIG     1     -19.313 -21.254 -12.219  1.00  0.00     0.000 A 
HETATM   11  C   LIG     1     -19.392 -20.297 -13.230  1.00  0.00     0.001 A 
HETATM   12  C   LIG     1     -19.285 -18.942 -12.917  1.00  0.00     0.007 A 
ENDBRANCH   6   7
ENDBRANCH   5   6
BRANCH   5  13
HETATM   13  C   LIG     1     -20.763 -16.022  -9.788  1.00  0.00     0.282 C 
HETATM   14  O   LIG     1     -20.584 -14.934  -9.251  1.00  0.00    -0.263 OA
BRANCH  13  15
HETATM   15  O   LIG     1     -21.352 -17.101  -9.201  1.00  0.00    -0.316 OA
BRANCH  15  16
HETATM   16  C   LIG     1     -22.768 -17.011  -9.014  1.00  0.00     0.205 C 
BRANCH  16  17
HETATM   17  C   LIG     1     -23.061 -17.024  -7.551  1.00  0.00    -0.011 C 
HETATM   18  C   LIG     1     -24.293 -16.996  -7.034  1.00  0.00     0.009 C 
ENDBRANCH  16  17
ENDBRANCH  15  16
ENDBRANCH  13  15
ENDBRANCH   5  13
ENDBRANCH   2   5
BRANCH   3  19
HETATM   19  C   LIG     1     -20.536 -13.712 -13.979  1.00  0.00     0.318 C 
BRANCH  19  20
HETATM   20  N   LIG     1     -19.155 -13.664 -14.461  1.00  0.00     0.092 N 
HETATM   21  H   LIG     1     -18.762 -12.741 -14.280  1.00  0.00     0.313 HD
HETATM   22  H   LIG     1     -18.586 -14.322 -13.929  1.00  0.00     0.313 HD
ENDBRANCH  19  20
BRANCH  19  23
HETATM   23  C   LIG     1     -21.502 -13.532 -15.150  1.00  0.00     0.156 C 
BRANCH  23  24
HETATM   24  C   LIG     1     -22.864 -13.095 -14.665  1.00  0.00     0.261 C 
HETATM   25  O   LIG     1     -23.053 -12.496 -13.614  1.00  0.00    -0.265 OA
BRANCH  24  26
HETATM   26  O   LIG     1     -23.817 -13.439 -15.578  1.00  0.00    -0.318 OA
BRANCH  26  27
HETATM   27  C   LIG     1     -24.280 -12.376 -16.416  1.00  0.00     0.205 C 
BRANCH  27  28
HETATM   28  C   LIG     1     -24.081 -12.767 -17.843  1.00  0.00    -0.011 C 
HETATM   29  C   LIG     1     -23.667 -13.977 -18.235  1.00  0.00     0.009 C 
ENDBRANCH  27  28
ENDBRANCH  26  27
ENDBRANCH  24  26
ENDBRANCH  23  24
ENDBRANCH  19  23
ENDBRANCH   3  19
TORSDOF 14
ENDMDL
MODEL 4
REMARK VINA RESULT:      -7.7      2.665      5.515
REMARK  14 active torsions:
REMARK  status: ('A' for Active; 'I' for Inactive)
REMARK    1  A    between atoms: O_1  and  C_14 
REMARK    2  A    between atoms: O_1  and  C_21 
REMARK    3  A    between atoms: O_4  and  C_17 
REMARK    4  A    between atoms: O_4  and  C_22 
REMARK    5  A    between atoms: N_6  and  C_8 
REMARK       I    between atoms: N_6  and  C_12 
REMARK    6  A    between atoms: N_7  and  C_10 
REMARK    7  A    between atoms: C_8  and  C_9 
REMARK    8  A    between atoms: C_8  and  C_14 
REMARK    9  A    between atoms: C_9  and  C_11 
REMARK   10  A    between atoms: C_10  and  C_12 
REMARK   11  A    between atoms: C_10  and  C_13 
REMARK   12  A    between atoms: C_13  and  C_17 
REMARK   13  A    between atoms: C_21  and  C_23 
REMARK   14  A    between atoms: C_22  and  C_24 
ROOT
HETATM    1  O   LIG     1     -20.646 -12.383 -11.291  1.00  0.00    -0.271 OA
HETATM    2  N   LIG     1     -21.451 -14.539 -10.983  1.00  0.00    -0.345 N 
HETATM    3  C   LIG     1     -21.475 -13.260 -11.522  1.00  0.00     0.252 C 
HETATM    4  H   LIG     1     -22.191 -15.193 -11.221  1.00  0.00     0.163 HD
ENDROOT
BRANCH   2   5
HETATM    5  C   LIG     1     -20.427 -14.994 -10.072  1.00  0.00     0.188 C 
BRANCH   5   6
HETATM    6  C   LIG     1     -20.886 -14.872  -8.611  1.00  0.00     0.074 C 
BRANCH   6   7
HETATM    7  C   LIG     1     -22.157 -15.622  -8.283  1.00  0.00    -0.056 A 
HETATM    8  C   LIG     1     -23.398 -15.031  -8.525  1.00  0.00     0.007 A 
HETATM    9  C   LIG     1     -24.571 -15.723  -8.222  1.00  0.00     0.001 A 
HETATM   10  C   LIG     1     -24.503 -17.004  -7.676  1.00  0.00     0.000 A 
HETATM   11  C   LIG     1     -23.263 -17.595  -7.434  1.00  0.00     0.001 A 
HETATM   12  C   LIG     1     -22.090 -16.903  -7.737  1.00  0.00     0.007 A 
ENDBRANCH   6   7
ENDBRANCH   5   6
BRANCH   5  13
HETATM   13  C   LIG     1     -19.941 -16.401 -10.401  1.00  0.00     0.282 C 
HETATM   14  O   LIG     1     -20.307 -17.010 -11.401  1.00  0.00    -0.263 OA
BRANCH  13  15
HETATM   15  O   LIG     1     -19.086 -16.883  -9.455  1.00  0.00    -0.316 OA
BRANCH  15  16
HETATM   16  C   LIG     1     -18.612 -18.217  -9.669  1.00  0.00     0.205 C 
BRANCH  16  17
HETATM   17  C   LIG     1     -19.427 -19.154  -8.842  1.00  0.00    -0.011 C 
HETATM   18  C   LIG     1     -18.933 -20.237  -8.234  1.00  0.00     0.009 C 
ENDBRANCH  16  17
ENDBRANCH  15  16
ENDBRANCH  13  15
ENDBRANCH   5  13
ENDBRANCH   2   5
BRANCH   3  19
HETATM   19  C   LIG     1     -22.684 -13.039 -12.429  1.00  0.00     0.318 C 
BRANCH  19  20
HETATM   20  N   LIG     1     -23.029 -11.619 -12.340  1.00  0.00     0.092 N 
HETATM   21  H   LIG     1     -24.008 -11.521 -12.075  1.00  0.00     0.313 HD
HETATM   22  H   LIG     1     -22.488 -11.184 -11.593  1.00  0.00     0.313 HD
ENDBRANCH  19  20
BRANCH  19  23
HETATM   23  C   LIG     1     -22.330 -13.400 -13.872  1.00  0.00     0.156 C 
BRANCH  23  24
HETATM   24  C   LIG     1     -22.930 -14.731 -14.258  1.00  0.00     0.261 C 
HETATM   25  O   LIG     1     -22.971 -15.702 -13.513  1.00  0.00    -0.265 OA
BRANCH  24  26
HETATM   26  O   LIG     1     -23.432 -14.667 -15.524  1.00  0.00    -0.318 OA
BRANCH  26  27
HETATM   27  C   LIG     1     -23.680 -13.350 -16.024  1.00  0.00     0.205 C 
BRANCH  27  28
HETATM   28  C   LIG     1     -24.374 -13.458 -17.341  1.00  0.00    -0.011 C 
HETATM   29  C   LIG     1     -23.781 -13.869 -18.467  1.00  0.00     0.009 C 
ENDBRANCH  27  28
ENDBRANCH  26  27
ENDBRANCH  24  26
ENDBRANCH  23  24
ENDBRANCH  19  23
ENDBRANCH   3  19
TORSDOF 14
ENDMDL
MODEL 5
REMARK VINA RESULT:      -7.7      2.457      5.447
REMARK  14 active torsions:
REMARK  status: ('A' for Active; 'I' for Inactive)
REMARK    1  A    between atoms: O_1  and  C_14 
REMARK    2  A    between atoms: O_1  and  C_21 
REMARK    3  A    between atoms: O_4  and  C_17 
REMARK    4  A    between atoms: O_4  and  C_22 
REMARK    5  A    between atoms: N_6  and  C_8 
REMARK       I    between atoms: N_6  and  C_12 
REMARK    6  A    between atoms: N_7  and  C_10 
REMARK    7  A    between atoms: C_8  and  C_9 
REMARK    8  A    between atoms: C_8  and  C_14 
REMARK    9  A    between atoms: C_9  and  C_11 
REMARK   10  A    between atoms: C_10  and  C_12 
REMARK   11  A    between atoms: C_10  and  C_13 
REMARK   12  A    between atoms: C_13  and  C_17 
REMARK   13  A    between atoms: C_21  and  C_23 
REMARK   14  A    between atoms: C_22  and  C_24 
ROOT
HETATM    1  O   LIG     1     -19.335 -15.082 -12.537  1.00  0.00    -0.271 OA
HETATM    2  N   LIG     1     -20.463 -16.644 -11.241  1.00  0.00    -0.345 N 
HETATM    3  C   LIG     1     -20.368 -15.674 -12.229  1.00  0.00     0.252 C 
HETATM    4  H   LIG     1     -21.366 -17.068 -11.045  1.00  0.00     0.163 HD
ENDROOT
BRANCH   2   5
HETATM    5  C   LIG     1     -19.337 -17.079 -10.447  1.00  0.00     0.188 C 
BRANCH   5   6
HETATM    6  C   LIG     1     -19.498 -16.665  -8.977  1.00  0.00     0.074 C 
BRANCH   6   7
HETATM    7  C   LIG     1     -20.929 -16.566  -8.501  1.00  0.00    -0.056 A 
HETATM    8  C   LIG     1     -21.576 -15.329  -8.487  1.00  0.00     0.007 A 
HETATM    9  C   LIG     1     -22.896 -15.238  -8.047  1.00  0.00     0.001 A 
HETATM   10  C   LIG     1     -23.570 -16.382  -7.621  1.00  0.00     0.000 A 
HETATM   11  C   LIG     1     -22.924 -17.618  -7.635  1.00  0.00     0.001 A 
HETATM   12  C   LIG     1     -21.603 -17.710  -8.075  1.00  0.00     0.007 A 
ENDBRANCH   6   7
ENDBRANCH   5   6
BRANCH   5  13
HETATM   13  C   LIG     1     -19.067 -18.572 -10.593  1.00  0.00     0.282 C 
HETATM   14  O   LIG     1     -19.002 -19.329  -9.630  1.00  0.00    -0.263 OA
BRANCH  13  15
HETATM   15  O   LIG     1     -18.895 -18.938 -11.894  1.00  0.00    -0.316 OA
BRANCH  15  16
HETATM   16  C   LIG     1     -19.275 -20.280 -12.217  1.00  0.00     0.205 C 
BRANCH  16  17
HETATM   17  C   LIG     1     -19.594 -20.350 -13.673  1.00  0.00    -0.011 C 
HETATM   18  C   LIG     1     -20.051 -21.447 -14.286  1.00  0.00     0.009 C 
ENDBRANCH  16  17
ENDBRANCH  15  16
ENDBRANCH  13  15
ENDBRANCH   5  13
ENDBRANCH   2   5
BRANCH   3  19
HETATM   19  C   LIG     1     -21.715 -15.386 -12.888  1.00  0.00     0.318 C 
BRANCH  19  20
HETATM   20  N   LIG     1     -22.587 -14.834 -11.851  1.00  0.00     0.092 N 
HETATM   21  H   LIG     1     -22.238 -13.922 -11.560  1.00  0.00     0.313 HD
HETATM   22  H   LIG     1     -23.515 -14.670 -12.239  1.00  0.00     0.313 HD
ENDBRANCH  19  20
BRANCH  19  23
HETATM   23  C   LIG     1     -21.540 -14.370 -14.017  1.00  0.00     0.156 C 
BRANCH  23  24
HETATM   24  C   LIG     1     -22.774 -13.513 -14.169  1.00  0.00     0.261 C 
HETATM   25  O   LIG     1     -22.944 -12.454 -13.577  1.00  0.00    -0.265 OA
BRANCH  24  26
HETATM   26  O   LIG     1     -23.627 -14.077 -15.069  1.00  0.00    -0.318 OA
BRANCH  26  27
HETATM   27  C   LIG     1     -24.612 -13.198 -15.621  1.00  0.00     0.205 C 
BRANCH  27  28
HETATM   28  C   LIG     1     -24.291 -12.958 -17.059  1.00  0.00    -0.011 C 
HETATM   29  C   LIG     1     -23.757 -13.878 -17.869  1.00  0.00     0.009 C 
ENDBRANCH  27  28
ENDBRANCH  26  27
ENDBRANCH  24  26
ENDBRANCH  23  24
ENDBRANCH  19  23
ENDBRANCH   3  19
TORSDOF 14
ENDMDL
MODEL 6
REMARK VINA RESULT:      -7.6      2.213      6.359
REMARK  14 active torsions:
REMARK  status: ('A' for Active; 'I' for Inactive)
REMARK    1  A    between atoms: O_1  and  C_14 
REMARK    2  A    between atoms: O_1  and  C_21 
REMARK    3  A    between atoms: O_4  and  C_17 
REMARK    4  A    between atoms: O_4  and  C_22 
REMARK    5  A    between atoms: N_6  and  C_8 
REMARK       I    between atoms: N_6  and  C_12 
REMARK    6  A    between atoms: N_7  and  C_10 
REMARK    7  A    between atoms: C_8  and  C_9 
REMARK    8  A    between atoms: C_8  and  C_14 
REMARK    9  A    between atoms: C_9  and  C_11 
REMARK   10  A    between atoms: C_10  and  C_12 
REMARK   11  A    between atoms: C_10  and  C_13 
REMARK   12  A    between atoms: C_13  and  C_17 
REMARK   13  A    between atoms: C_21  and  C_23 
REMARK   14  A    between atoms: C_22  and  C_24 
ROOT
HETATM    1  O   LIG     1     -21.742 -16.700 -13.459  1.00  0.00    -0.271 OA
HETATM    2  N   LIG     1     -20.177 -15.806 -11.996  1.00  0.00    -0.345 N 
HETATM    3  C   LIG     1     -20.611 -16.684 -12.980  1.00  0.00     0.252 C 
HETATM    4  H   LIG     1     -19.225 -15.879 -11.648  1.00  0.00     0.163 HD
ENDROOT
BRANCH   2   5
HETATM    5  C   LIG     1     -21.023 -14.791 -11.412  1.00  0.00     0.188 C 
BRANCH   5   6
HETATM    6  C   LIG     1     -20.831 -14.713  -9.890  1.00  0.00     0.074 C 
BRANCH   6   7
HETATM    7  C   LIG     1     -21.828 -15.516  -9.085  1.00  0.00    -0.056 A 
HETATM    8  C   LIG     1     -23.118 -15.025  -8.881  1.00  0.00     0.007 A 
HETATM    9  C   LIG     1     -24.037 -15.766  -8.139  1.00  0.00     0.001 A 
HETATM   10  C   LIG     1     -23.667 -16.997  -7.599  1.00  0.00     0.000 A 
HETATM   11  C   LIG     1     -22.377 -17.489  -7.803  1.00  0.00     0.001 A 
HETATM   12  C   LIG     1     -21.458 -16.748  -8.546  1.00  0.00     0.007 A 
ENDBRANCH   6   7
ENDBRANCH   5   6
BRANCH   5  13
HETATM   13  C   LIG     1     -20.844 -13.432 -12.079  1.00  0.00     0.282 C 
HETATM   14  O   LIG     1     -19.999 -12.622 -11.713  1.00  0.00    -0.263 OA
BRANCH  13  15
HETATM   15  O   LIG     1     -21.733 -13.237 -13.093  1.00  0.00    -0.316 OA
BRANCH  15  16
HETATM   16  C   LIG     1     -23.115 -13.279 -12.724  1.00  0.00     0.205 C 
BRANCH  16  17
HETATM   17  C   LIG     1     -23.479 -11.984 -12.078  1.00  0.00    -0.011 C 
HETATM   18  C   LIG     1     -23.616 -11.819 -10.759  1.00  0.00     0.009 C 
ENDBRANCH  16  17
ENDBRANCH  15  16
ENDBRANCH  13  15
ENDBRANCH   5  13
ENDBRANCH   2   5
BRANCH   3  19
HETATM   19  C   LIG     1     -19.522 -17.671 -13.393  1.00  0.00     0.318 C 
BRANCH  19  20
HETATM   20  N   LIG     1     -18.391 -16.880 -13.877  1.00  0.00     0.092 N 
HETATM   21  H   LIG     1     -17.717 -17.492 -14.336  1.00  0.00     0.313 HD
HETATM   22  H   LIG     1     -18.712 -16.228 -14.592  1.00  0.00     0.313 HD
ENDBRANCH  19  20
BRANCH  19  23
HETATM   23  C   LIG     1     -19.093 -18.513 -12.191  1.00  0.00     0.156 C 
BRANCH  23  24
HETATM   24  C   LIG     1     -19.280 -19.985 -12.468  1.00  0.00     0.261 C 
HETATM   25  O   LIG     1     -19.096 -20.864 -11.634  1.00  0.00    -0.265 OA
BRANCH  24  26
HETATM   26  O   LIG     1     -19.704 -20.170 -13.750  1.00  0.00    -0.318 OA
BRANCH  26  27
HETATM   27  C   LIG     1     -20.425 -21.381 -13.993  1.00  0.00     0.205 C 
BRANCH  27  28
HETATM   28  C   LIG     1     -21.664 -21.059 -14.761  1.00  0.00    -0.011 C 
HETATM   29  C   LIG     1     -22.681 -21.910 -14.930  1.00  0.00     0.009 C 
ENDBRANCH  27  28
ENDBRANCH  26  27
ENDBRANCH  24  26
ENDBRANCH  23  24
ENDBRANCH  19  23
ENDBRANCH   3  19
TORSDOF 14
ENDMDL
MODEL 7
REMARK VINA RESULT:      -7.6      3.219      6.069
REMARK  14 active torsions:
REMARK  status: ('A' for Active; 'I' for Inactive)
REMARK    1  A    between atoms: O_1  and  C_14 
REMARK    2  A    between atoms: O_1  and  C_21 
REMARK    3  A    between atoms: O_4  and  C_17 
REMARK    4  A    between atoms: O_4  and  C_22 
REMARK    5  A    between atoms: N_6  and  C_8 
REMARK       I    between atoms: N_6  and  C_12 
REMARK    6  A    between atoms: N_7  and  C_10 
REMARK    7  A    between atoms: C_8  and  C_9 
REMARK    8  A    between atoms: C_8  and  C_14 
REMARK    9  A    between atoms: C_9  and  C_11 
REMARK   10  A    between atoms: C_10  and  C_12 
REMARK   11  A    between atoms: C_10  and  C_13 
REMARK   12  A    between atoms: C_13  and  C_17 
REMARK   13  A    between atoms: C_21  and  C_23 
REMARK   14  A    between atoms: C_22  and  C_24 
ROOT
HETATM    1  O   LIG     1     -23.094 -14.161 -13.599  1.00  0.00    -0.271 OA
HETATM    2  N   LIG     1     -21.949 -15.989 -12.740  1.00  0.00    -0.345 N 
HETATM    3  C   LIG     1     -22.675 -15.312 -13.709  1.00  0.00     0.252 C 
HETATM    4  H   LIG     1     -21.659 -16.948 -12.915  1.00  0.00     0.163 HD
ENDROOT
BRANCH   2   5
HETATM    5  C   LIG     1     -21.595 -15.409 -11.466  1.00  0.00     0.188 C 
BRANCH   5   6
HETATM    6  C   LIG     1     -21.270 -16.495 -10.429  1.00  0.00     0.074 C 
BRANCH   6   7
HETATM    7  C   LIG     1     -22.306 -16.659  -9.340  1.00  0.00    -0.056 A 
HETATM    8  C   LIG     1     -22.014 -17.421  -8.208  1.00  0.00     0.007 A 
HETATM    9  C   LIG     1     -22.970 -17.573  -7.204  1.00  0.00     0.001 A 
HETATM   10  C   LIG     1     -24.218 -16.964  -7.332  1.00  0.00     0.000 A 
HETATM   11  C   LIG     1     -24.510 -16.202  -8.463  1.00  0.00     0.001 A 
HETATM   12  C   LIG     1     -23.554 -16.050  -9.467  1.00  0.00     0.007 A 
ENDBRANCH   6   7
ENDBRANCH   5   6
BRANCH   5  13
HETATM   13  C   LIG     1     -20.474 -14.383 -11.586  1.00  0.00     0.282 C 
HETATM   14  O   LIG     1     -19.499 -14.551 -12.311  1.00  0.00    -0.263 OA
BRANCH  13  15
HETATM   15  O   LIG     1     -20.686 -13.295 -10.793  1.00  0.00    -0.316 OA
BRANCH  15  16
HETATM   16  C   LIG     1     -22.050 -13.033 -10.449  1.00  0.00     0.205 C 
BRANCH  16  17
HETATM   17  C   LIG     1     -22.149 -12.872  -8.969  1.00  0.00    -0.011 C 
HETATM   18  C   LIG     1     -21.237 -13.328  -8.105  1.00  0.00     0.009 C 
ENDBRANCH  16  17
ENDBRANCH  15  16
ENDBRANCH  13  15
ENDBRANCH   5  13
ENDBRANCH   2   5
BRANCH   3  19
HETATM   19  C   LIG     1     -22.934 -16.172 -14.944  1.00  0.00     0.318 C 
BRANCH  19  20
HETATM   20  N   LIG     1     -22.116 -17.377 -14.802  1.00  0.00     0.092 N 
HETATM   21  H   LIG     1     -22.002 -17.821 -15.713  1.00  0.00     0.313 HD
HETATM   22  H   LIG     1     -21.180 -17.119 -14.494  1.00  0.00     0.313 HD
ENDBRANCH  19  20
BRANCH  19  23
HETATM   23  C   LIG     1     -24.413 -16.552 -15.018  1.00  0.00     0.156 C 
BRANCH  23  24
HETATM   24  C   LIG     1     -24.665 -17.879 -14.344  1.00  0.00     0.261 C 
HETATM   25  O   LIG     1     -24.911 -18.002 -13.151  1.00  0.00    -0.265 OA
BRANCH  24  26
HETATM   26  O   LIG     1     -24.609 -18.887 -15.261  1.00  0.00    -0.318 OA
BRANCH  26  27
HETATM   27  C   LIG     1     -24.694 -20.211 -14.728  1.00  0.00     0.205 C 
BRANCH  27  28
HETATM   28  C   LIG     1     -23.443 -20.950 -15.073  1.00  0.00    -0.011 C 
HETATM   29  C   LIG     1     -23.347 -22.283 -15.102  1.00  0.00     0.009 C 
ENDBRANCH  27  28
ENDBRANCH  26  27
ENDBRANCH  24  26
ENDBRANCH  23  24
ENDBRANCH  19  23
ENDBRANCH   3  19
TORSDOF 14
ENDMDL
MODEL 8
REMARK VINA RESULT:      -7.5      1.999      6.321
REMARK  14 active torsions:
REMARK  status: ('A' for Active; 'I' for Inactive)
REMARK    1  A    between atoms: O_1  and  C_14 
REMARK    2  A    between atoms: O_1  and  C_21 
REMARK    3  A    between atoms: O_4  and  C_17 
REMARK    4  A    between atoms: O_4  and  C_22 
REMARK    5  A    between atoms: N_6  and  C_8 
REMARK       I    between atoms: N_6  and  C_12 
REMARK    6  A    between atoms: N_7  and  C_10 
REMARK    7  A    between atoms: C_8  and  C_9 
REMARK    8  A    between atoms: C_8  and  C_14 
REMARK    9  A    between atoms: C_9  and  C_11 
REMARK   10  A    between atoms: C_10  and  C_12 
REMARK   11  A    between atoms: C_10  and  C_13 
REMARK   12  A    between atoms: C_13  and  C_17 
REMARK   13  A    between atoms: C_21  and  C_23 
REMARK   14  A    between atoms: C_22  and  C_24 
ROOT
HETATM    1  O   LIG     1     -22.210 -16.490 -13.369  1.00  0.00    -0.271 OA
HETATM    2  N   LIG     1     -20.758 -15.334 -11.975  1.00  0.00    -0.345 N 
HETATM    3  C   LIG     1     -21.071 -16.226 -12.991  1.00  0.00     0.252 C 
HETATM    4  H   LIG     1     -19.785 -15.193 -11.719  1.00  0.00     0.163 HD
ENDROOT
BRANCH   2   5
HETATM    5  C   LIG     1     -21.755 -14.597 -11.233  1.00  0.00     0.188 C 
BRANCH   5   6
HETATM    6  C   LIG     1     -21.449 -14.606  -9.727  1.00  0.00     0.074 C 
BRANCH   6   7
HETATM    7  C   LIG     1     -22.348 -15.501  -8.905  1.00  0.00    -0.056 A 
HETATM    8  C   LIG     1     -21.832 -16.653  -8.310  1.00  0.00     0.007 A 
HETATM    9  C   LIG     1     -22.662 -17.478  -7.552  1.00  0.00     0.001 A 
HETATM   10  C   LIG     1     -24.008 -17.152  -7.388  1.00  0.00     0.000 A 
HETATM   11  C   LIG     1     -24.524 -16.001  -7.982  1.00  0.00     0.001 A 
HETATM   12  C   LIG     1     -23.694 -15.175  -8.740  1.00  0.00     0.007 A 
ENDBRANCH   6   7
ENDBRANCH   5   6
BRANCH   5  13
HETATM   13  C   LIG     1     -21.949 -13.184 -11.767  1.00  0.00     0.282 C 
HETATM   14  O   LIG     1     -21.198 -12.258 -11.477  1.00  0.00    -0.263 OA
BRANCH  13  15
HETATM   15  O   LIG     1     -23.045 -13.084 -12.571  1.00  0.00    -0.316 OA
BRANCH  15  16
HETATM   16  C   LIG     1     -22.780 -12.843 -13.956  1.00  0.00     0.205 C 
BRANCH  16  17
HETATM   17  C   LIG     1     -23.801 -13.562 -14.772  1.00  0.00    -0.011 C 
HETATM   18  C   LIG     1     -24.480 -13.005 -15.781  1.00  0.00     0.009 C 
ENDBRANCH  16  17
ENDBRANCH  15  16
ENDBRANCH  13  15
ENDBRANCH   5  13
ENDBRANCH   2   5
BRANCH   3  19
HETATM   19  C   LIG     1     -19.828 -16.887 -13.582  1.00  0.00     0.318 C 
BRANCH  19  20
HETATM   20  N   LIG     1     -19.295 -15.968 -14.588  1.00  0.00     0.092 N 
HETATM   21  H   LIG     1     -18.756 -15.235 -14.130  1.00  0.00     0.313 HD
HETATM   22  H   LIG     1     -18.641 -16.465 -15.191  1.00  0.00     0.313 HD
ENDBRANCH  19  20
BRANCH  19  23
HETATM   23  C   LIG     1     -18.787 -17.122 -12.487  1.00  0.00     0.156 C 
BRANCH  23  24
HETATM   24  C   LIG     1     -19.071 -18.402 -11.738  1.00  0.00     0.261 C 
HETATM   25  O   LIG     1     -19.361 -18.444 -10.548  1.00  0.00    -0.265 OA
BRANCH  24  26
HETATM   26  O   LIG     1     -18.986 -19.467 -12.583  1.00  0.00    -0.318 OA
BRANCH  26  27
HETATM   27  C   LIG     1     -19.250 -20.744 -11.995  1.00  0.00     0.205 C 
BRANCH  27  28
HETATM   28  C   LIG     1     -19.734 -21.673 -13.058  1.00  0.00    -0.011 C 
HETATM   29  C   LIG     1     -20.028 -21.292 -14.306  1.00  0.00     0.009 C 
ENDBRANCH  27  28
ENDBRANCH  26  27
ENDBRANCH  24  26
ENDBRANCH  23  24
ENDBRANCH  19  23
ENDBRANCH   3  19
TORSDOF 14
ENDMDL
MODEL 9
REMARK VINA RESULT:      -7.4      2.742      4.727
REMARK  14 active torsions:
REMARK  status: ('A' for Active; 'I' for Inactive)
REMARK    1  A    between atoms: O_1  and  C_14 
REMARK    2  A    between atoms: O_1  and  C_21 
REMARK    3  A    between atoms: O_4  and  C_17 
REMARK    4  A    between atoms: O_4  and  C_22 
REMARK    5  A    between atoms: N_6  and  C_8 
REMARK       I    between atoms: N_6  and  C_12 
REMARK    6  A    between atoms: N_7  and  C_10 
REMARK    7  A    between atoms: C_8  and  C_9 
REMARK    8  A    between atoms: C_8  and  C_14 
REMARK    9  A    between atoms: C_9  and  C_11 
REMARK   10  A    between atoms: C_10  and  C_12 
REMARK   11  A    between atoms: C_10  and  C_13 
REMARK   12  A    between atoms: C_13  and  C_17 
REMARK   13  A    between atoms: C_21  and  C_23 
REMARK   14  A    between atoms: C_22  and  C_24 
ROOT
HETATM    1  O   LIG     1     -23.435 -16.219 -11.584  1.00  0.00    -0.271 OA
HETATM    2  N   LIG     1     -21.189 -16.335 -12.160  1.00  0.00    -0.345 N 
HETATM    3  C   LIG     1     -22.548 -16.270 -12.434  1.00  0.00     0.252 C 
HETATM    4  H   LIG     1     -20.529 -16.391 -12.931  1.00  0.00     0.163 HD
ENDROOT
BRANCH   2   5
HETATM    5  C   LIG     1     -20.650 -16.350 -10.820  1.00  0.00     0.188 C 
BRANCH   5   6
HETATM    6  C   LIG     1     -19.222 -16.916 -10.799  1.00  0.00     0.074 C 
BRANCH   6   7
HETATM    7  C   LIG     1     -19.129 -18.385 -10.456  1.00  0.00    -0.056 A 
HETATM    8  C   LIG     1     -19.020 -18.785  -9.123  1.00  0.00     0.007 A 
HETATM    9  C   LIG     1     -18.933 -20.141  -8.807  1.00  0.00     0.001 A 
HETATM   10  C   LIG     1     -18.955 -21.096  -9.822  1.00  0.00     0.000 A 
HETATM   11  C   LIG     1     -19.064 -20.697 -11.154  1.00  0.00     0.001 A 
HETATM   12  C   LIG     1     -19.151 -19.341 -11.470  1.00  0.00     0.007 A 
ENDBRANCH   6   7
ENDBRANCH   5   6
BRANCH   5  13
HETATM   13  C   LIG     1     -20.734 -14.987 -10.145  1.00  0.00     0.282 C 
HETATM   14  O   LIG     1     -20.483 -13.941 -10.735  1.00  0.00    -0.263 OA
BRANCH  13  15
HETATM   15  O   LIG     1     -21.096 -15.083  -8.835  1.00  0.00    -0.316 OA
BRANCH  15  16
HETATM   16  C   LIG     1     -21.780 -16.284  -8.466  1.00  0.00     0.205 C 
BRANCH  16  17
HETATM   17  C   LIG     1     -23.160 -15.933  -8.021  1.00  0.00    -0.011 C 
HETATM   18  C   LIG     1     -23.937 -16.738  -7.289  1.00  0.00     0.009 C 
ENDBRANCH  16  17
ENDBRANCH  15  16
ENDBRANCH  13  15
ENDBRANCH   5  13
ENDBRANCH   2   5
BRANCH   3  19
HETATM   19  C   LIG     1     -22.838 -16.300 -13.932  1.00  0.00     0.318 C 
BRANCH  19  20
HETATM   20  N   LIG     1     -21.580 -16.627 -14.603  1.00  0.00     0.092 N 
HETATM   21  H   LIG     1     -20.862 -16.825 -13.907  1.00  0.00     0.313 HD
HETATM   22  H   LIG     1     -21.694 -17.484 -15.142  1.00  0.00     0.313 HD
ENDBRANCH  19  20
BRANCH  19  23
HETATM   23  C   LIG     1     -23.887 -17.368 -14.242  1.00  0.00     0.156 C 
BRANCH  23  24
HETATM   24  C   LIG     1     -23.398 -18.311 -15.316  1.00  0.00     0.261 C 
HETATM   25  O   LIG     1     -23.681 -18.198 -16.502  1.00  0.00    -0.265 OA
BRANCH  24  26
HETATM   26  O   LIG     1     -22.587 -19.260 -14.769  1.00  0.00    -0.318 OA
BRANCH  26  27
HETATM   27  C   LIG     1     -23.044 -20.610 -14.897  1.00  0.00     0.205 C 
BRANCH  27  28
HETATM   28  C   LIG     1     -21.896 -21.532 -14.651  1.00  0.00    -0.011 C 
HETATM   29  C   LIG     1     -20.639 -21.123 -14.451  1.00  0.00     0.009 C 
ENDBRANCH  27  28
ENDBRANCH  26  27
ENDBRANCH  24  26
ENDBRANCH  23  24
ENDBRANCH  19  23
ENDBRANCH   3  19
TORSDOF 14
ENDMDL
