MODEL 1
REMARK VINA RESULT:      -6.1      0.000      0.000
REMARK  4 active torsions:
REMARK  status: ('A' for Active; 'I' for Inactive)
REMARK    1  A    between atoms: O_1  and  C_7 
REMARK    2  A    between atoms: N_3  and  C_29 
REMARK    3  A    between atoms: C_7  and  C_19 
REMARK    4  A    between atoms: C_11  and  C_17 
ROOT
HETATM    1  C   LIG     1     -20.311 -15.970  -9.854  1.00  0.00    -0.068 C 
HETATM    2  C   LIG     1     -19.440 -16.784  -9.709  1.00  0.00    -0.108 C 
HETATM    3  C   LIG     1     -18.380 -17.775  -9.534  1.00  0.00     0.112 C 
ENDROOT
BRANCH   1   4
HETATM    4  C   LIG     1     -21.383 -14.969 -10.031  1.00  0.00     0.128 C 
HETATM    5  C   LIG     1     -22.221 -15.174 -11.337  1.00  0.00     0.004 C 
HETATM    6  C   LIG     1     -23.117 -16.354 -10.909  1.00  0.00     0.006 C 
HETATM    7  C   LIG     1     -21.442 -15.613 -12.591  1.00  0.00     0.027 C 
HETATM    8  C   LIG     1     -23.006 -13.873 -11.653  1.00  0.00     0.020 C 
HETATM    9  C   LIG     1     -24.160 -16.736 -11.964  1.00  0.00     0.021 C 
HETATM   10  C   LIG     1     -23.607 -15.943  -9.521  1.00  0.00     0.010 C 
HETATM   11  C   LIG     1     -23.461 -17.105 -13.290  1.00  0.00    -0.060 C 
HETATM   12  C   LIG     1     -25.075 -17.849 -11.423  1.00  0.00     0.014 C 
HETATM   13  C   LIG     1     -22.332 -16.160 -13.752  1.00  0.00     0.049 C 
HETATM   14  C   LIG     1     -23.847 -18.193 -14.008  1.00  0.00    -0.048 C 
HETATM   15  C   LIG     1     -24.954 -19.053 -13.568  1.00  0.00    -0.048 C 
HETATM   16  C   LIG     1     -23.277 -18.614 -15.348  1.00  0.00     0.047 C 
HETATM   17  C   LIG     1     -25.890 -18.470 -12.545  1.00  0.00     0.040 C 
HETATM   18  C   LIG     1     -25.140 -20.301 -14.031  1.00  0.00     0.057 C 
HETATM   19  C   LIG     1     -24.181 -20.911 -14.986  1.00  0.00     0.150 C 
HETATM   20  O   LIG     1     -24.358 -22.060 -15.386  1.00  0.00    -0.293 OA
HETATM   21  C   LIG     1     -22.967 -20.105 -15.380  1.00  0.00     0.087 C 
HETATM   22  C   LIG     1     -22.441 -15.142  -8.907  1.00  0.00     0.052 C 
BRANCH   4  23
HETATM   23  O   LIG     1     -20.772 -13.689  -9.969  1.00  0.00    -0.377 OA
HETATM   24  H   LIG     1     -19.830 -13.792 -10.188  1.00  0.00     0.211 HD
ENDBRANCH   4  23
BRANCH  13  25
HETATM   25  C   LIG     1     -22.755 -15.085 -14.756  1.00  0.00    -0.050 A 
HETATM   26  C   LIG     1     -21.858 -14.085 -15.119  1.00  0.00     0.010 A 
HETATM   27  C   LIG     1     -22.243 -13.105 -16.033  1.00  0.00     0.030 A 
HETATM   28  C   LIG     1     -23.527 -13.131 -16.583  1.00  0.00     0.029 A 
HETATM   29  C   LIG     1     -24.422 -14.135 -16.216  1.00  0.00     0.030 A 
HETATM   30  C   LIG     1     -24.036 -15.114 -15.300  1.00  0.00     0.010 A 
BRANCH  28  31
HETATM   31  N   LIG     1     -23.917 -12.141 -17.508  1.00  0.00    -0.390 N 
HETATM   32  C   LIG     1     -23.975 -12.443 -18.925  1.00  0.00     0.149 C 
HETATM   33  C   LIG     1     -24.278 -10.813 -17.054  1.00  0.00     0.149 C 
ENDBRANCH  28  31
ENDBRANCH  13  25
ENDBRANCH   1   4
TORSDOF 4
ENDMDL
