MODEL 1
REMARK VINA RESULT:      -7.0      0.000      0.000
REMARK  1 active torsions:
REMARK  status: ('A' for Active; 'I' for Inactive)
REMARK    1  A    between atoms: N_3  and  N_4 
ROOT
HETATM    1  O   LIG     1     -23.742 -16.794 -15.568  1.00  0.00    -0.292 OA
HETATM    2  O   LIG     1     -21.889 -14.054 -10.247  1.00  0.00    -0.267 OA
HETATM    3  N   LIG     1     -22.661 -13.467 -12.372  1.00  0.00    -0.244 N 
HETATM    4  C   LIG     1     -23.479 -13.225 -16.108  1.00  0.00    -0.036 C 
HETATM    5  C   LIG     1     -23.469 -12.762 -14.635  1.00  0.00     0.069 C 
HETATM    6  C   LIG     1     -24.237 -14.553 -16.216  1.00  0.00     0.093 C 
HETATM    7  C   LIG     1     -23.098 -13.846 -13.641  1.00  0.00     0.047 A 
HETATM    8  C   LIG     1     -22.038 -13.381 -16.641  1.00  0.00     0.015 C 
HETATM    9  C   LIG     1     -24.191 -12.164 -16.967  1.00  0.00     0.015 C 
HETATM   10  C   LIG     1     -23.177 -15.160 -13.937  1.00  0.00     0.034 A 
HETATM   11  C   LIG     1     -23.698 -15.601 -15.268  1.00  0.00     0.162 C 
HETATM   12  C   LIG     1     -22.791 -16.150 -12.955  1.00  0.00     0.022 A 
HETATM   13  C   LIG     1     -22.277 -14.362 -11.373  1.00  0.00     0.262 A 
HETATM   14  C   LIG     1     -22.360 -15.801 -11.740  1.00  0.00     0.077 A 
ENDROOT
BRANCH   3  15
HETATM   15  N   LIG     1     -22.617 -12.110 -12.046  1.00  0.00    -0.230 NA
HETATM   16  C   LIG     1     -21.298 -11.777 -11.528  1.00  0.00     0.136 C 
HETATM   17  C   LIG     1     -23.660 -11.812 -11.074  1.00  0.00     0.136 C 
ENDBRANCH   3  15
TORSDOF 1
ENDMDL
MODEL 2
REMARK VINA RESULT:      -6.4      2.117      3.711
REMARK  1 active torsions:
REMARK  status: ('A' for Active; 'I' for Inactive)
REMARK    1  A    between atoms: N_3  and  N_4 
ROOT
HETATM    1  O   LIG     1     -22.064 -14.047 -16.215  1.00  0.00    -0.292 OA
HETATM    2  O   LIG     1     -23.807 -11.743 -10.656  1.00  0.00    -0.267 OA
HETATM    3  N   LIG     1     -22.363 -13.354 -11.538  1.00  0.00    -0.244 N 
HETATM    4  C   LIG     1     -20.631 -16.087 -13.592  1.00  0.00    -0.036 C 
HETATM    5  C   LIG     1     -20.803 -15.108 -12.410  1.00  0.00     0.069 C 
HETATM    6  C   LIG     1     -20.514 -15.290 -14.896  1.00  0.00     0.093 C 
HETATM    7  C   LIG     1     -21.834 -14.020 -12.642  1.00  0.00     0.047 A 
HETATM    8  C   LIG     1     -21.821 -17.069 -13.664  1.00  0.00     0.015 C 
HETATM    9  C   LIG     1     -19.347 -16.910 -13.384  1.00  0.00     0.015 C 
HETATM   10  C   LIG     1     -22.255 -13.672 -13.877  1.00  0.00     0.034 A 
HETATM   11  C   LIG     1     -21.665 -14.326 -15.085  1.00  0.00     0.162 C 
HETATM   12  C   LIG     1     -23.256 -12.640 -14.038  1.00  0.00     0.022 A 
HETATM   13  C   LIG     1     -23.325 -12.346 -11.614  1.00  0.00     0.262 A 
HETATM   14  C   LIG     1     -23.779 -12.001 -12.987  1.00  0.00     0.077 A 
ENDROOT
BRANCH   3  15
HETATM   15  N   LIG     1     -21.899 -13.680 -10.262  1.00  0.00    -0.230 NA
HETATM   16  C   LIG     1     -23.010 -14.151  -9.448  1.00  0.00     0.136 C 
HETATM   17  C   LIG     1     -21.262 -12.514  -9.666  1.00  0.00     0.136 C 
ENDBRANCH   3  15
TORSDOF 1
ENDMDL
MODEL 3
REMARK VINA RESULT:      -6.2      2.337      3.686
REMARK  1 active torsions:
REMARK  status: ('A' for Active; 'I' for Inactive)
REMARK    1  A    between atoms: N_3  and  N_4 
ROOT
HETATM    1  O   LIG     1     -24.349 -11.922 -13.439  1.00  0.00    -0.292 OA
HETATM    2  O   LIG     1     -20.703 -16.810 -12.001  1.00  0.00    -0.267 OA
HETATM    3  N   LIG     1     -21.644 -15.787 -13.879  1.00  0.00    -0.244 N 
HETATM    4  C   LIG     1     -23.855 -13.937 -16.404  1.00  0.00    -0.036 C 
HETATM    5  C   LIG     1     -22.631 -14.753 -15.935  1.00  0.00     0.069 C 
HETATM    6  C   LIG     1     -23.871 -12.587 -15.679  1.00  0.00     0.093 C 
HETATM    7  C   LIG     1     -22.435 -14.780 -14.431  1.00  0.00     0.047 A 
HETATM    8  C   LIG     1     -25.162 -14.712 -16.132  1.00  0.00     0.015 C 
HETATM    9  C   LIG     1     -23.751 -13.697 -17.921  1.00  0.00     0.015 C 
HETATM   10  C   LIG     1     -22.995 -13.867 -13.610  1.00  0.00     0.034 A 
HETATM   11  C   LIG     1     -23.801 -12.741 -14.176  1.00  0.00     0.162 C 
HETATM   12  C   LIG     1     -22.790 -13.954 -12.181  1.00  0.00     0.022 A 
HETATM   13  C   LIG     1     -21.396 -15.932 -12.513  1.00  0.00     0.262 A 
HETATM   14  C   LIG     1     -22.044 -14.920 -11.637  1.00  0.00     0.077 A 
ENDROOT
BRANCH   3  15
HETATM   15  N   LIG     1     -21.027 -16.708 -14.727  1.00  0.00    -0.230 NA
HETATM   16  C   LIG     1     -21.588 -18.032 -14.495  1.00  0.00     0.136 C 
HETATM   17  C   LIG     1     -19.590 -16.694 -14.495  1.00  0.00     0.136 C 
ENDBRANCH   3  15
TORSDOF 1
ENDMDL
MODEL 4
REMARK VINA RESULT:      -6.1      1.838      4.501
REMARK  1 active torsions:
REMARK  status: ('A' for Active; 'I' for Inactive)
REMARK    1  A    between atoms: N_3  and  N_4 
ROOT
HETATM    1  O   LIG     1     -21.186 -16.664 -12.157  1.00  0.00    -0.292 OA
HETATM    2  O   LIG     1     -25.111 -14.939 -16.725  1.00  0.00    -0.267 OA
HETATM    3  N   LIG     1     -23.734 -13.969 -15.106  1.00  0.00    -0.244 N 
HETATM    4  C   LIG     1     -21.709 -13.088 -11.974  1.00  0.00    -0.036 C 
HETATM    5  C   LIG     1     -22.291 -12.861 -13.386  1.00  0.00     0.069 C 
HETATM    6  C   LIG     1     -20.794 -14.317 -11.995  1.00  0.00     0.093 C 
HETATM    7  C   LIG     1     -22.838 -14.111 -14.047  1.00  0.00     0.047 A 
HETATM    8  C   LIG     1     -22.843 -13.276 -10.942  1.00  0.00     0.015 C 
HETATM    9  C   LIG     1     -20.890 -11.852 -11.559  1.00  0.00     0.015 C 
HETATM   10  C   LIG     1     -22.489 -15.353 -13.650  1.00  0.00     0.034 A 
HETATM   11  C   LIG     1     -21.487 -15.539 -12.556  1.00  0.00     0.162 C 
HETATM   12  C   LIG     1     -23.060 -16.511 -14.304  1.00  0.00     0.022 A 
HETATM   13  C   LIG     1     -24.320 -15.036 -15.788  1.00  0.00     0.262 A 
HETATM   14  C   LIG     1     -23.927 -16.390 -15.313  1.00  0.00     0.077 A 
ENDROOT
BRANCH   3  15
HETATM   15  N   LIG     1     -24.065 -12.688 -15.549  1.00  0.00    -0.230 NA
HETATM   16  C   LIG     1     -25.509 -12.510 -15.484  1.00  0.00     0.136 C 
HETATM   17  C   LIG     1     -23.567 -12.500 -16.904  1.00  0.00     0.136 C 
ENDBRANCH   3  15
TORSDOF 1
ENDMDL
MODEL 5
REMARK VINA RESULT:      -6.1      2.293      4.930
REMARK  1 active torsions:
REMARK  status: ('A' for Active; 'I' for Inactive)
REMARK    1  A    between atoms: N_3  and  N_4 
ROOT
HETATM    1  O   LIG     1     -21.352 -14.117 -11.117  1.00  0.00    -0.292 OA
HETATM    2  O   LIG     1     -24.888 -12.387 -15.991  1.00  0.00    -0.267 OA
HETATM    3  N   LIG     1     -23.617 -14.213 -15.278  1.00  0.00    -0.244 N 
HETATM    4  C   LIG     1     -21.021 -16.581 -13.746  1.00  0.00    -0.036 C 
HETATM    5  C   LIG     1     -22.261 -16.201 -14.585  1.00  0.00     0.069 C 
HETATM    6  C   LIG     1     -21.262 -16.195 -12.283  1.00  0.00     0.093 C 
HETATM    7  C   LIG     1     -22.791 -14.805 -14.322  1.00  0.00     0.047 A 
HETATM    8  C   LIG     1     -19.760 -15.875 -14.290  1.00  0.00     0.015 C 
HETATM    9  C   LIG     1     -20.793 -18.100 -13.840  1.00  0.00     0.015 C 
HETATM   10  C   LIG     1     -22.496 -14.116 -13.200  1.00  0.00     0.034 A 
HETATM   11  C   LIG     1     -21.662 -14.744 -12.130  1.00  0.00     0.162 C 
HETATM   12  C   LIG     1     -23.014 -12.778 -13.012  1.00  0.00     0.022 A 
HETATM   13  C   LIG     1     -24.158 -12.931 -15.164  1.00  0.00     0.262 A 
HETATM   14  C   LIG     1     -23.797 -12.194 -13.924  1.00  0.00     0.077 A 
ENDROOT
BRANCH   3  15
HETATM   15  N   LIG     1     -23.960 -14.937 -16.421  1.00  0.00    -0.230 NA
HETATM   16  C   LIG     1     -23.483 -14.233 -17.602  1.00  0.00     0.136 C 
HETATM   17  C   LIG     1     -25.404 -15.123 -16.461  1.00  0.00     0.136 C 
ENDBRANCH   3  15
TORSDOF 1
ENDMDL
MODEL 6
REMARK VINA RESULT:      -6.0      2.605      3.116
REMARK  1 active torsions:
REMARK  status: ('A' for Active; 'I' for Inactive)
REMARK    1  A    between atoms: N_3  and  N_4 
ROOT
HETATM    1  O   LIG     1     -26.566 -15.673 -16.165  1.00  0.00    -0.292 OA
HETATM    2  O   LIG     1     -21.254 -17.618 -13.471  1.00  0.00    -0.267 OA
HETATM    3  N   LIG     1     -22.106 -15.738 -14.566  1.00  0.00    -0.244 N 
HETATM    4  C   LIG     1     -23.954 -13.258 -16.829  1.00  0.00    -0.036 C 
HETATM    5  C   LIG     1     -22.946 -13.694 -15.743  1.00  0.00     0.069 C 
HETATM    6  C   LIG     1     -25.373 -13.618 -16.376  1.00  0.00     0.093 C 
HETATM    7  C   LIG     1     -23.161 -15.100 -15.218  1.00  0.00     0.047 A 
HETATM    8  C   LIG     1     -23.629 -13.935 -18.178  1.00  0.00     0.015 C 
HETATM    9  C   LIG     1     -23.857 -11.734 -17.027  1.00  0.00     0.015 C 
HETATM   10  C   LIG     1     -24.333 -15.755 -15.356  1.00  0.00     0.034 A 
HETATM   11  C   LIG     1     -25.501 -15.077 -15.998  1.00  0.00     0.162 C 
HETATM   12  C   LIG     1     -24.475 -17.104 -14.853  1.00  0.00     0.022 A 
HETATM   13  C   LIG     1     -22.169 -17.033 -14.050  1.00  0.00     0.262 A 
HETATM   14  C   LIG     1     -23.469 -17.731 -14.236  1.00  0.00     0.077 A 
ENDROOT
BRANCH   3  15
HETATM   15  N   LIG     1     -20.905 -15.051 -14.383  1.00  0.00    -0.230 NA
HETATM   16  C   LIG     1     -19.790 -15.922 -14.723  1.00  0.00     0.136 C 
HETATM   17  C   LIG     1     -20.817 -14.589 -13.005  1.00  0.00     0.136 C 
ENDBRANCH   3  15
TORSDOF 1
ENDMDL
MODEL 7
REMARK VINA RESULT:      -6.0      5.574      7.723
REMARK  1 active torsions:
REMARK  status: ('A' for Active; 'I' for Inactive)
REMARK    1  A    between atoms: N_3  and  N_4 
ROOT
HETATM    1  O   LIG     1     -21.331 -17.963 -14.201  1.00  0.00    -0.292 OA
HETATM    2  O   LIG     1     -23.507 -23.693 -15.497  1.00  0.00    -0.267 OA
HETATM    3  N   LIG     1     -24.220 -21.469 -15.547  1.00  0.00    -0.244 N 
HETATM    4  C   LIG     1     -24.873 -17.746 -14.915  1.00  0.00    -0.036 C 
HETATM    5  C   LIG     1     -25.058 -19.110 -15.614  1.00  0.00     0.069 C 
HETATM    6  C   LIG     1     -23.428 -17.271 -15.104  1.00  0.00     0.093 C 
HETATM    7  C   LIG     1     -23.962 -20.117 -15.322  1.00  0.00     0.047 A 
HETATM    8  C   LIG     1     -25.213 -17.854 -13.412  1.00  0.00     0.015 C 
HETATM    9  C   LIG     1     -25.831 -16.719 -15.546  1.00  0.00     0.015 C 
HETATM   10  C   LIG     1     -22.748 -19.754 -14.857  1.00  0.00     0.034 A 
HETATM   11  C   LIG     1     -22.420 -18.308 -14.660  1.00  0.00     0.162 C 
HETATM   12  C   LIG     1     -21.748 -20.761 -14.577  1.00  0.00     0.022 A 
HETATM   13  C   LIG     1     -23.305 -22.494 -15.307  1.00  0.00     0.262 A 
HETATM   14  C   LIG     1     -21.985 -22.060 -14.777  1.00  0.00     0.077 A 
ENDROOT
BRANCH   3  15
HETATM   15  N   LIG     1     -25.459 -21.846 -16.069  1.00  0.00    -0.230 NA
HETATM   16  C   LIG     1     -25.995 -22.954 -15.292  1.00  0.00     0.136 C 
HETATM   17  C   LIG     1     -25.304 -22.207 -17.471  1.00  0.00     0.136 C 
ENDBRANCH   3  15
TORSDOF 1
ENDMDL
MODEL 8
REMARK VINA RESULT:      -6.0      3.980      6.081
REMARK  1 active torsions:
REMARK  status: ('A' for Active; 'I' for Inactive)
REMARK    1  A    between atoms: N_3  and  N_4 
ROOT
HETATM    1  O   LIG     1     -18.695 -17.443 -13.334  1.00  0.00    -0.292 OA
HETATM    2  O   LIG     1     -23.199 -21.433 -15.080  1.00  0.00    -0.267 OA
HETATM    3  N   LIG     1     -22.898 -19.146 -14.708  1.00  0.00    -0.244 N 
HETATM    4  C   LIG     1     -21.851 -15.675 -13.466  1.00  0.00    -0.036 C 
HETATM    5  C   LIG     1     -22.653 -16.686 -14.314  1.00  0.00     0.069 C 
HETATM    6  C   LIG     1     -20.361 -15.801 -13.803  1.00  0.00     0.093 C 
HETATM    7  C   LIG     1     -22.072 -18.086 -14.336  1.00  0.00     0.047 A 
HETATM    8  C   LIG     1     -22.086 -15.921 -11.959  1.00  0.00     0.015 C 
HETATM    9  C   LIG     1     -22.326 -14.249 -13.794  1.00  0.00     0.015 C 
HETATM   10  C   LIG     1     -20.787 -18.343 -14.013  1.00  0.00     0.034 A 
HETATM   11  C   LIG     1     -19.860 -17.222 -13.667  1.00  0.00     0.162 C 
HETATM   12  C   LIG     1     -20.292 -19.703 -14.033  1.00  0.00     0.022 A 
HETATM   13  C   LIG     1     -22.491 -20.480 -14.756  1.00  0.00     0.262 A 
HETATM   14  C   LIG     1     -21.076 -20.730 -14.376  1.00  0.00     0.077 A 
ENDROOT
BRANCH   3  15
HETATM   15  N   LIG     1     -24.216 -18.881 -15.085  1.00  0.00    -0.230 NA
HETATM   16  C   LIG     1     -25.111 -19.218 -13.988  1.00  0.00     0.136 C 
HETATM   17  C   LIG     1     -24.538 -19.639 -16.285  1.00  0.00     0.136 C 
ENDBRANCH   3  15
TORSDOF 1
ENDMDL
MODEL 9
REMARK VINA RESULT:      -6.0      1.980      5.251
REMARK  1 active torsions:
REMARK  status: ('A' for Active; 'I' for Inactive)
REMARK    1  A    between atoms: N_3  and  N_4 
ROOT
HETATM    1  O   LIG     1     -24.622 -10.868 -11.436  1.00  0.00    -0.292 OA
HETATM    2  O   LIG     1     -22.470 -14.855 -15.763  1.00  0.00    -0.267 OA
HETATM    3  N   LIG     1     -22.286 -14.454 -13.469  1.00  0.00    -0.244 N 
HETATM    4  C   LIG     1     -22.061 -12.949  -9.951  1.00  0.00    -0.036 C 
HETATM    5  C   LIG     1     -22.029 -14.076 -11.007  1.00  0.00     0.069 C 
HETATM    6  C   LIG     1     -23.452 -12.308  -9.937  1.00  0.00     0.093 C 
HETATM    7  C   LIG     1     -22.621 -13.693 -12.350  1.00  0.00     0.047 A 
HETATM    8  C   LIG     1     -20.980 -11.888 -10.255  1.00  0.00     0.015 C 
HETATM    9  C   LIG     1     -21.763 -13.547  -8.564  1.00  0.00     0.015 C 
HETATM   10  C   LIG     1     -23.461 -12.647 -12.500  1.00  0.00     0.034 A 
HETATM   11  C   LIG     1     -23.887 -11.847 -11.311  1.00  0.00     0.162 C 
HETATM   12  C   LIG     1     -23.980 -12.316 -13.810  1.00  0.00     0.022 A 
HETATM   13  C   LIG     1     -22.750 -14.200 -14.760  1.00  0.00     0.262 A 
HETATM   14  C   LIG     1     -23.658 -13.029 -14.893  1.00  0.00     0.077 A 
ENDROOT
BRANCH   3  15
HETATM   15  N   LIG     1     -21.452 -15.562 -13.312  1.00  0.00    -0.230 NA
HETATM   16  C   LIG     1     -20.290 -15.422 -14.177  1.00  0.00     0.136 C 
HETATM   17  C   LIG     1     -22.197 -16.776 -13.616  1.00  0.00     0.136 C 
ENDBRANCH   3  15
TORSDOF 1
ENDMDL
