MODEL 1
REMARK VINA RESULT:      -7.7      0.000      0.000
REMARK  1 active torsions:
REMARK  status: ('A' for Active; 'I' for Inactive)
REMARK    1  A    between atoms: C_7  and  C_21 
ROOT
HETATM    1  O   LIG     1     -24.769 -24.037 -17.458  1.00  0.00    -0.291 OA
HETATM    2  C   LIG     1     -21.505 -17.742 -14.610  1.00  0.00     0.000 C 
HETATM    3  C   LIG     1     -22.388 -16.481 -14.488  1.00  0.00     0.006 C 
HETATM    4  C   LIG     1     -22.284 -19.040 -14.373  1.00  0.00     0.001 C 
HETATM    5  C   LIG     1     -23.429 -19.141 -15.428  1.00  0.00     0.004 C 
HETATM    6  C   LIG     1     -24.269 -20.469 -15.297  1.00  0.00     0.016 C 
HETATM    7  C   LIG     1     -21.310 -15.399 -14.717  1.00  0.00     0.058 C 
HETATM    8  C   LIG     1     -23.465 -16.557 -15.578  1.00  0.00     0.000 C 
HETATM    9  C   LIG     1     -24.293 -17.850 -15.469  1.00  0.00     0.000 C 
HETATM   10  C   LIG     1     -20.308 -17.423 -13.721  1.00  0.00     0.000 C 
HETATM   11  C   LIG     1     -21.369 -20.268 -14.471  1.00  0.00     0.004 C 
HETATM   12  C   LIG     1     -20.081 -15.916 -13.941  1.00  0.00     0.007 C 
HETATM   13  C   LIG     1     -23.318 -21.671 -15.223  1.00  0.00    -0.042 C 
HETATM   14  C   LIG     1     -23.058 -16.315 -13.099  1.00  0.00     0.000 C 
HETATM   15  C   LIG     1     -22.154 -21.557 -14.267  1.00  0.00     0.022 C 
HETATM   16  C   LIG     1     -25.188 -20.593 -16.547  1.00  0.00     0.012 C 
HETATM   17  C   LIG     1     -25.150 -20.472 -14.026  1.00  0.00     0.004 C 
HETATM   18  C   LIG     1     -25.770 -21.985 -16.741  1.00  0.00     0.070 C 
HETATM   19  C   LIG     1     -23.480 -22.801 -15.932  1.00  0.00     0.029 C 
HETATM   20  C   LIG     1     -24.669 -23.011 -16.789  1.00  0.00     0.172 C 
ENDROOT
BRANCH   7  21
HETATM   21  C   LIG     1     -21.715 -14.022 -14.292  1.00  0.00     0.151 C 
HETATM   22  O   LIG     1     -21.352 -13.546 -13.217  1.00  0.00    -0.296 OA
HETATM   23  C   LIG     1     -22.586 -13.249 -15.244  1.00  0.00     0.072 C 
ENDBRANCH   7  21
TORSDOF 1
ENDMDL
