MODEL 1
REMARK VINA RESULT:      -8.8      0.000      0.000
REMARK  1 active torsions:
REMARK  status: ('A' for Active; 'I' for Inactive)
REMARK    1  A    between atoms: C_7  and  C_21 
ROOT
HETATM    1  O   LIG     1     -18.884 -22.463 -10.608  1.00  0.00    -0.291 OA
HETATM    2  C   LIG     1     -21.536 -15.573 -12.580  1.00  0.00     0.000 C 
HETATM    3  C   LIG     1     -21.600 -14.497 -11.475  1.00  0.00     0.006 C 
HETATM    4  C   LIG     1     -20.347 -16.525 -12.417  1.00  0.00     0.001 C 
HETATM    5  C   LIG     1     -20.465 -17.247 -11.038  1.00  0.00     0.004 C 
HETATM    6  C   LIG     1     -19.305 -18.286 -10.788  1.00  0.00     0.016 C 
HETATM    7  C   LIG     1     -22.834 -13.707 -11.967  1.00  0.00     0.058 C 
HETATM    8  C   LIG     1     -21.790 -15.216 -10.133  1.00  0.00     0.000 C 
HETATM    9  C   LIG     1     -20.669 -16.239  -9.873  1.00  0.00     0.000 C 
HETATM   10  C   LIG     1     -21.668 -14.766 -13.867  1.00  0.00     0.000 C 
HETATM   11  C   LIG     1     -20.298 -17.560 -13.549  1.00  0.00     0.004 C 
HETATM   12  C   LIG     1     -22.662 -13.649 -13.499  1.00  0.00     0.007 C 
HETATM   13  C   LIG     1     -19.165 -19.200 -12.013  1.00  0.00    -0.042 C 
HETATM   14  C   LIG     1     -20.346 -13.587 -11.409  1.00  0.00     0.000 C 
HETATM   15  C   LIG     1     -19.134 -18.524 -13.364  1.00  0.00     0.022 C 
HETATM   16  C   LIG     1     -19.668 -19.132  -9.533  1.00  0.00     0.012 C 
HETATM   17  C   LIG     1     -17.947 -17.589 -10.548  1.00  0.00     0.004 C 
HETATM   18  C   LIG     1     -18.842 -20.401  -9.393  1.00  0.00     0.070 C 
HETATM   19  C   LIG     1     -19.047 -20.537 -11.943  1.00  0.00     0.029 C 
HETATM   20  C   LIG     1     -18.949 -21.236 -10.641  1.00  0.00     0.172 C 
ENDROOT
BRANCH   7  21
HETATM   21  C   LIG     1     -22.982 -12.348 -11.357  1.00  0.00     0.151 C 
HETATM   22  O   LIG     1     -22.783 -11.324 -12.009  1.00  0.00    -0.296 OA
HETATM   23  C   LIG     1     -23.387 -12.296  -9.909  1.00  0.00     0.072 C 
ENDBRANCH   7  21
TORSDOF 1
ENDMDL
