MODEL 1
REMARK VINA RESULT:      -8.7      0.000      0.000
REMARK  1 active torsions:
REMARK  status: ('A' for Active; 'I' for Inactive)
REMARK    1  A    between atoms: C_7  and  C_10 
ROOT
HETATM    1 CL   LIG     1     -18.337 -17.560 -10.397  1.00  0.00    -0.084 Cl
HETATM    2  O   LIG     1     -23.807 -11.837 -12.092  1.00  0.00    -0.271 OA
HETATM    3  N   LIG     1     -22.481 -13.729 -12.394  1.00  0.00    -0.320 N 
HETATM    4  N   LIG     1     -22.714 -13.197  -9.414  1.00  0.00    -0.279 NA
HETATM    5  C   LIG     1     -21.397 -14.965 -10.505  1.00  0.00     0.022 A 
HETATM    6  C   LIG     1     -21.524 -14.669 -11.879  1.00  0.00     0.049 A 
HETATM    7  C   LIG     1     -22.339 -14.430  -9.478  1.00  0.00     0.074 C 
HETATM    8  C   LIG     1     -22.197 -12.284 -10.412  1.00  0.00     0.252 C 
HETATM    9  C   LIG     1     -22.919 -12.596 -11.698  1.00  0.00     0.243 C 
HETATM   10  C   LIG     1     -20.398 -15.847 -10.054  1.00  0.00     0.040 A 
HETATM   11  C   LIG     1     -20.671 -15.348 -12.772  1.00  0.00     0.032 A 
HETATM   12  C   LIG     1     -22.980 -13.932 -13.755  1.00  0.00     0.159 C 
HETATM   13  C   LIG     1     -19.549 -16.477 -10.959  1.00  0.00     0.035 A 
HETATM   14  C   LIG     1     -19.694 -16.238 -12.318  1.00  0.00     0.026 A 
ENDROOT
BRANCH   7  15
HETATM   15  C   LIG     1     -22.908 -15.364  -8.464  1.00  0.00    -0.007 A 
HETATM   16  C   LIG     1     -24.201 -15.850  -8.626  1.00  0.00     0.014 A 
HETATM   17  C   LIG     1     -24.732 -16.724  -7.679  1.00  0.00     0.001 A 
HETATM   18  C   LIG     1     -23.969 -17.107  -6.577  1.00  0.00     0.000 A 
HETATM   19  C   LIG     1     -22.672 -16.615  -6.421  1.00  0.00     0.001 A 
HETATM   20  C   LIG     1     -22.140 -15.740  -7.369  1.00  0.00     0.014 A 
ENDBRANCH   7  15
TORSDOF 1
ENDMDL
