MODEL 1
REMARK VINA RESULT:      -6.3      0.000      0.000
REMARK  8 active torsions:
REMARK  status: ('A' for Active; 'I' for Inactive)
REMARK    1  A    between atoms: O_2  and  C_7 
REMARK    2  A    between atoms: O_2  and  C_11 
REMARK    3  A    between atoms: O_3  and  C_9 
REMARK    4  A    between atoms: O_3  and  C_19 
REMARK    5  A    between atoms: N_6  and  C_8 
REMARK       I    between atoms: N_6  and  C_19 
REMARK    6  A    between atoms: C_8  and  C_10 
REMARK    7  A    between atoms: C_8  and  C_11 
REMARK    8  A    between atoms: C_10  and  C_18 
ROOT
HETATM    1  C   LIG     1     -21.994 -15.807 -14.164  1.00  0.00     0.187 C 
ENDROOT
BRANCH   1   2
HETATM    2  N   LIG     1     -22.136 -15.025 -15.366  1.00  0.00    -0.323 N 
HETATM    3  C   LIG     1     -22.376 -13.665 -15.375  1.00  0.00     0.362 C 
HETATM    4  O   LIG     1     -22.497 -12.954 -14.382  1.00  0.00    -0.238 OA
HETATM    5  H   LIG     1     -22.066 -15.499 -16.262  1.00  0.00     0.165 HD
BRANCH   3   6
HETATM    6  O   LIG     1     -22.460 -13.218 -16.664  1.00  0.00    -0.294 OA
BRANCH   6   7
HETATM    7  C   LIG     1     -23.782 -13.122 -17.207  1.00  0.00     0.061 C 
HETATM    8  C   LIG     1     -24.773 -13.650 -16.170  1.00  0.00     0.046 C 
HETATM    9  C   LIG     1     -23.823 -13.976 -18.472  1.00  0.00     0.046 C 
HETATM   10  C   LIG     1     -24.068 -11.657 -17.537  1.00  0.00     0.046 C 
ENDBRANCH   6   7
ENDBRANCH   3   6
ENDBRANCH   1   2
BRANCH   1  11
HETATM   11  C   LIG     1     -23.243 -16.661 -13.912  1.00  0.00     0.045 C 
BRANCH  11  12
HETATM   12  C   LIG     1     -23.922 -17.152 -15.196  1.00  0.00     0.082 C 
HETATM   13  I   LIG     1     -24.201 -19.278 -15.129  1.00  0.00    -0.090 I 
ENDBRANCH  11  12
ENDBRANCH   1  11
BRANCH   1  14
HETATM   14  C   LIG     1     -20.726 -16.649 -14.161  1.00  0.00     0.282 C 
HETATM   15  O   LIG     1     -20.733 -17.857 -13.950  1.00  0.00    -0.263 OA
BRANCH  14  16
HETATM   16  O   LIG     1     -19.615 -15.904 -14.422  1.00  0.00    -0.310 OA
BRANCH  16  17
HETATM   17  C   LIG     1     -18.899 -15.433 -13.275  1.00  0.00     0.060 C 
HETATM   18  C   LIG     1     -17.598 -14.786 -13.745  1.00  0.00     0.045 C 
HETATM   19  C   LIG     1     -18.609 -16.641 -12.386  1.00  0.00     0.045 C 
HETATM   20  C   LIG     1     -19.776 -14.422 -12.537  1.00  0.00     0.045 C 
ENDBRANCH  16  17
ENDBRANCH  14  16
ENDBRANCH   1  14
TORSDOF 8
ENDMDL
MODEL 2
REMARK VINA RESULT:      -6.3      2.667      4.084
REMARK  8 active torsions:
REMARK  status: ('A' for Active; 'I' for Inactive)
REMARK    1  A    between atoms: O_2  and  C_7 
REMARK    2  A    between atoms: O_2  and  C_11 
REMARK    3  A    between atoms: O_3  and  C_9 
REMARK    4  A    between atoms: O_3  and  C_19 
REMARK    5  A    between atoms: N_6  and  C_8 
REMARK       I    between atoms: N_6  and  C_19 
REMARK    6  A    between atoms: C_8  and  C_10 
REMARK    7  A    between atoms: C_8  and  C_11 
REMARK    8  A    between atoms: C_10  and  C_18 
ROOT
HETATM    1  C   LIG     1     -21.133 -13.482 -13.260  1.00  0.00     0.187 C 
ENDROOT
BRANCH   1   2
HETATM    2  N   LIG     1     -21.568 -12.950 -14.527  1.00  0.00    -0.323 N 
HETATM    3  C   LIG     1     -21.973 -13.732 -15.591  1.00  0.00     0.362 C 
HETATM    4  O   LIG     1     -22.016 -14.959 -15.601  1.00  0.00    -0.238 OA
HETATM    5  H   LIG     1     -21.571 -11.942 -14.653  1.00  0.00     0.165 HD
BRANCH   3   6
HETATM    6  O   LIG     1     -22.323 -12.935 -16.645  1.00  0.00    -0.294 OA
BRANCH   6   7
HETATM    7  C   LIG     1     -23.699 -12.993 -17.041  1.00  0.00     0.061 C 
HETATM    8  C   LIG     1     -23.830 -13.980 -18.200  1.00  0.00     0.046 C 
HETATM    9  C   LIG     1     -24.109 -11.589 -17.482  1.00  0.00     0.046 C 
HETATM   10  C   LIG     1     -24.532 -13.445 -15.843  1.00  0.00     0.046 C 
ENDBRANCH   6   7
ENDBRANCH   3   6
ENDBRANCH   1   2
BRANCH   1  11
HETATM   11  C   LIG     1     -19.683 -13.081 -12.964  1.00  0.00     0.045 C 
BRANCH  11  12
HETATM   12  C   LIG     1     -18.645 -13.954 -13.679  1.00  0.00     0.082 C 
HETATM   13  I   LIG     1     -18.998 -16.029 -13.261  1.00  0.00    -0.090 I 
ENDBRANCH  11  12
ENDBRANCH   1  11
BRANCH   1  14
HETATM   14  C   LIG     1     -22.066 -13.105 -12.117  1.00  0.00     0.282 C 
HETATM   15  O   LIG     1     -23.186 -12.643 -12.301  1.00  0.00    -0.263 OA
BRANCH  14  16
HETATM   16  O   LIG     1     -21.506 -13.347 -10.898  1.00  0.00    -0.310 OA
BRANCH  16  17
HETATM   17  C   LIG     1     -21.964 -14.525 -10.226  1.00  0.00     0.060 C 
HETATM   18  C   LIG     1     -23.046 -14.124  -9.225  1.00  0.00     0.045 C 
HETATM   19  C   LIG     1     -20.766 -15.140  -9.507  1.00  0.00     0.045 C 
HETATM   20  C   LIG     1     -22.520 -15.494 -11.269  1.00  0.00     0.045 C 
ENDBRANCH  16  17
ENDBRANCH  14  16
ENDBRANCH   1  14
TORSDOF 8
ENDMDL
MODEL 3
REMARK VINA RESULT:      -6.2      4.620      6.789
REMARK  8 active torsions:
REMARK  status: ('A' for Active; 'I' for Inactive)
REMARK    1  A    between atoms: O_2  and  C_7 
REMARK    2  A    between atoms: O_2  and  C_11 
REMARK    3  A    between atoms: O_3  and  C_9 
REMARK    4  A    between atoms: O_3  and  C_19 
REMARK    5  A    between atoms: N_6  and  C_8 
REMARK       I    between atoms: N_6  and  C_19 
REMARK    6  A    between atoms: C_8  and  C_10 
REMARK    7  A    between atoms: C_8  and  C_11 
REMARK    8  A    between atoms: C_10  and  C_18 
ROOT
HETATM    1  C   LIG     1     -21.439 -14.744  -9.678  1.00  0.00     0.187 C 
ENDROOT
BRANCH   1   2
HETATM    2  N   LIG     1     -21.238 -15.756 -10.683  1.00  0.00    -0.323 N 
HETATM    3  C   LIG     1     -20.444 -15.583 -11.800  1.00  0.00     0.362 C 
HETATM    4  O   LIG     1     -19.816 -14.566 -12.081  1.00  0.00    -0.238 OA
HETATM    5  H   LIG     1     -21.712 -16.647 -10.573  1.00  0.00     0.165 HD
BRANCH   3   6
HETATM    6  O   LIG     1     -20.457 -16.720 -12.558  1.00  0.00    -0.294 OA
BRANCH   6   7
HETATM    7  C   LIG     1     -19.186 -17.349 -12.762  1.00  0.00     0.061 C 
HETATM    8  C   LIG     1     -18.398 -17.288 -11.454  1.00  0.00     0.046 C 
HETATM    9  C   LIG     1     -18.461 -16.575 -13.861  1.00  0.00     0.046 C 
HETATM   10  C   LIG     1     -19.422 -18.797 -13.189  1.00  0.00     0.046 C 
ENDBRANCH   6   7
ENDBRANCH   3   6
ENDBRANCH   1   2
BRANCH   1  11
HETATM   11  C   LIG     1     -22.687 -13.906  -9.983  1.00  0.00     0.045 C 
BRANCH  11  12
HETATM   12  C   LIG     1     -22.375 -12.552 -10.634  1.00  0.00     0.082 C 
HETATM   13  I   LIG     1     -23.020 -12.540 -12.680  1.00  0.00    -0.090 I 
ENDBRANCH  11  12
ENDBRANCH   1  11
BRANCH   1  14
HETATM   14  C   LIG     1     -21.478 -15.319  -8.269  1.00  0.00     0.282 C 
HETATM   15  O   LIG     1     -20.464 -15.568  -7.626  1.00  0.00    -0.263 OA
BRANCH  14  16
HETATM   16  O   LIG     1     -22.754 -15.511  -7.829  1.00  0.00    -0.310 OA
BRANCH  16  17
HETATM   17  C   LIG     1     -23.203 -16.869  -7.797  1.00  0.00     0.060 C 
HETATM   18  C   LIG     1     -24.176 -17.088  -8.953  1.00  0.00     0.045 C 
HETATM   19  C   LIG     1     -23.901 -17.092  -6.457  1.00  0.00     0.045 C 
HETATM   20  C   LIG     1     -21.987 -17.786  -7.927  1.00  0.00     0.045 C 
ENDBRANCH  16  17
ENDBRANCH  14  16
ENDBRANCH   1  14
TORSDOF 8
ENDMDL
MODEL 4
REMARK VINA RESULT:      -6.2      1.136      1.961
REMARK  8 active torsions:
REMARK  status: ('A' for Active; 'I' for Inactive)
REMARK    1  A    between atoms: O_2  and  C_7 
REMARK    2  A    between atoms: O_2  and  C_11 
REMARK    3  A    between atoms: O_3  and  C_9 
REMARK    4  A    between atoms: O_3  and  C_19 
REMARK    5  A    between atoms: N_6  and  C_8 
REMARK       I    between atoms: N_6  and  C_19 
REMARK    6  A    between atoms: C_8  and  C_10 
REMARK    7  A    between atoms: C_8  and  C_11 
REMARK    8  A    between atoms: C_10  and  C_18 
ROOT
HETATM    1  C   LIG     1     -22.512 -15.325 -13.445  1.00  0.00     0.187 C 
ENDROOT
BRANCH   1   2
HETATM    2  N   LIG     1     -22.471 -14.722 -14.752  1.00  0.00    -0.323 N 
HETATM    3  C   LIG     1     -22.754 -13.392 -14.995  1.00  0.00     0.362 C 
HETATM    4  O   LIG     1     -23.070 -12.563 -14.147  1.00  0.00    -0.238 OA
HETATM    5  H   LIG     1     -22.230 -15.307 -15.547  1.00  0.00     0.165 HD
BRANCH   3   6
HETATM    6  O   LIG     1     -22.628 -13.128 -16.330  1.00  0.00    -0.294 OA
BRANCH   6   7
HETATM    7  C   LIG     1     -23.851 -13.070 -17.073  1.00  0.00     0.061 C 
HETATM    8  C   LIG     1     -23.712 -13.960 -18.308  1.00  0.00     0.046 C 
HETATM    9  C   LIG     1     -24.073 -11.616 -17.482  1.00  0.00     0.046 C 
HETATM   10  C   LIG     1     -24.989 -13.557 -16.177  1.00  0.00     0.046 C 
ENDBRANCH   6   7
ENDBRANCH   3   6
ENDBRANCH   1   2
BRANCH   1  11
HETATM   11  C   LIG     1     -23.181 -16.705 -13.496  1.00  0.00     0.045 C 
BRANCH  11  12
HETATM   12  C   LIG     1     -23.965 -16.961 -14.788  1.00  0.00     0.082 C 
HETATM   13  I   LIG     1     -24.278 -19.065 -15.068  1.00  0.00    -0.090 I 
ENDBRANCH  11  12
ENDBRANCH   1  11
BRANCH   1  14
HETATM   14  C   LIG     1     -21.141 -15.389 -12.787  1.00  0.00     0.282 C 
HETATM   15  O   LIG     1     -20.466 -14.390 -12.563  1.00  0.00    -0.263 OA
BRANCH  14  16
HETATM   16  O   LIG     1     -20.775 -16.667 -12.486  1.00  0.00    -0.310 OA
BRANCH  16  17
HETATM   17  C   LIG     1     -19.470 -17.059 -12.922  1.00  0.00     0.060 C 
HETATM   18  C   LIG     1     -19.493 -18.551 -13.251  1.00  0.00     0.045 C 
HETATM   19  C   LIG     1     -18.499 -16.777 -11.778  1.00  0.00     0.045 C 
HETATM   20  C   LIG     1     -19.101 -16.234 -14.155  1.00  0.00     0.045 C 
ENDBRANCH  16  17
ENDBRANCH  14  16
ENDBRANCH   1  14
TORSDOF 8
ENDMDL
MODEL 5
REMARK VINA RESULT:      -6.1      4.123      6.005
REMARK  8 active torsions:
REMARK  status: ('A' for Active; 'I' for Inactive)
REMARK    1  A    between atoms: O_2  and  C_7 
REMARK    2  A    between atoms: O_2  and  C_11 
REMARK    3  A    between atoms: O_3  and  C_9 
REMARK    4  A    between atoms: O_3  and  C_19 
REMARK    5  A    between atoms: N_6  and  C_8 
REMARK       I    between atoms: N_6  and  C_19 
REMARK    6  A    between atoms: C_8  and  C_10 
REMARK    7  A    between atoms: C_8  and  C_11 
REMARK    8  A    between atoms: C_10  and  C_18 
ROOT
HETATM    1  C   LIG     1     -20.052 -17.695 -10.316  1.00  0.00     0.187 C 
ENDROOT
BRANCH   1   2
HETATM    2  N   LIG     1     -19.601 -16.437 -10.854  1.00  0.00    -0.323 N 
HETATM    3  C   LIG     1     -20.297 -15.712 -11.802  1.00  0.00     0.362 C 
HETATM    4  O   LIG     1     -21.370 -16.034 -12.303  1.00  0.00    -0.238 OA
HETATM    5  H   LIG     1     -18.716 -16.061 -10.527  1.00  0.00     0.165 HD
BRANCH   3   6
HETATM    6  O   LIG     1     -19.611 -14.569 -12.107  1.00  0.00    -0.294 OA
BRANCH   6   7
HETATM    7  C   LIG     1     -19.007 -14.531 -13.404  1.00  0.00     0.061 C 
HETATM    8  C   LIG     1     -18.928 -15.958 -13.947  1.00  0.00     0.046 C 
HETATM    9  C   LIG     1     -17.607 -13.942 -13.242  1.00  0.00     0.046 C 
HETATM   10  C   LIG     1     -19.860 -13.649 -14.314  1.00  0.00     0.046 C 
ENDBRANCH   6   7
ENDBRANCH   3   6
ENDBRANCH   1   2
BRANCH   1  11
HETATM   11  C   LIG     1     -18.969 -18.772 -10.452  1.00  0.00     0.045 C 
BRANCH  11  12
HETATM   12  C   LIG     1     -19.133 -19.656 -11.694  1.00  0.00     0.082 C 
HETATM   13  I   LIG     1     -19.120 -21.729 -11.143  1.00  0.00    -0.090 I 
ENDBRANCH  11  12
ENDBRANCH   1  11
BRANCH   1  14
HETATM   14  C   LIG     1     -20.547 -17.573  -8.882  1.00  0.00     0.282 C 
HETATM   15  O   LIG     1     -20.625 -18.534  -8.124  1.00  0.00    -0.263 OA
BRANCH  14  16
HETATM   16  O   LIG     1     -20.880 -16.291  -8.561  1.00  0.00    -0.310 OA
BRANCH  16  17
HETATM   17  C   LIG     1     -22.270 -16.051  -8.320  1.00  0.00     0.060 C 
HETATM   18  C   LIG     1     -22.599 -14.622  -8.748  1.00  0.00     0.045 C 
HETATM   19  C   LIG     1     -22.515 -16.234  -6.824  1.00  0.00     0.045 C 
HETATM   20  C   LIG     1     -23.085 -17.063  -9.125  1.00  0.00     0.045 C 
ENDBRANCH  16  17
ENDBRANCH  14  16
ENDBRANCH   1  14
TORSDOF 8
ENDMDL
MODEL 6
REMARK VINA RESULT:      -6.1      2.865      5.730
REMARK  8 active torsions:
REMARK  status: ('A' for Active; 'I' for Inactive)
REMARK    1  A    between atoms: O_2  and  C_7 
REMARK    2  A    between atoms: O_2  and  C_11 
REMARK    3  A    between atoms: O_3  and  C_9 
REMARK    4  A    between atoms: O_3  and  C_19 
REMARK    5  A    between atoms: N_6  and  C_8 
REMARK       I    between atoms: N_6  and  C_19 
REMARK    6  A    between atoms: C_8  and  C_10 
REMARK    7  A    between atoms: C_8  and  C_11 
REMARK    8  A    between atoms: C_10  and  C_18 
ROOT
HETATM    1  C   LIG     1     -21.537 -13.594 -13.910  1.00  0.00     0.187 C 
ENDROOT
BRANCH   1   2
HETATM    2  N   LIG     1     -21.315 -14.976 -13.568  1.00  0.00    -0.323 N 
HETATM    3  C   LIG     1     -20.403 -15.397 -12.619  1.00  0.00     0.362 C 
HETATM    4  O   LIG     1     -19.675 -14.666 -11.954  1.00  0.00    -0.238 OA
HETATM    5  H   LIG     1     -21.851 -15.686 -14.056  1.00  0.00     0.165 HD
BRANCH   3   6
HETATM    6  O   LIG     1     -20.428 -16.760 -12.526  1.00  0.00    -0.294 OA
BRANCH   6   7
HETATM    7  C   LIG     1     -19.183 -17.425 -12.768  1.00  0.00     0.061 C 
HETATM    8  C   LIG     1     -19.476 -18.859 -13.207  1.00  0.00     0.046 C 
HETATM    9  C   LIG     1     -18.394 -17.415 -11.461  1.00  0.00     0.046 C 
HETATM   10  C   LIG     1     -18.428 -16.665 -13.858  1.00  0.00     0.046 C 
ENDBRANCH   6   7
ENDBRANCH   3   6
ENDBRANCH   1   2
BRANCH   1  11
HETATM   11  C   LIG     1     -21.637 -13.412 -15.430  1.00  0.00     0.045 C 
BRANCH  11  12
HETATM   12  C   LIG     1     -22.563 -14.427 -16.111  1.00  0.00     0.082 C 
HETATM   13  I   LIG     1     -23.878 -13.436 -17.485  1.00  0.00    -0.090 I 
ENDBRANCH  11  12
ENDBRANCH   1  11
BRANCH   1  14
HETATM   14  C   LIG     1     -22.740 -13.000 -13.192  1.00  0.00     0.282 C 
HETATM   15  O   LIG     1     -23.478 -12.169 -13.710  1.00  0.00    -0.263 OA
BRANCH  14  16
HETATM   16  O   LIG     1     -22.886 -13.502 -11.933  1.00  0.00    -0.310 OA
BRANCH  16  17
HETATM   17  C   LIG     1     -22.655 -12.579 -10.864  1.00  0.00     0.060 C 
HETATM   18  C   LIG     1     -21.344 -11.843 -11.131  1.00  0.00     0.045 C 
HETATM   19  C   LIG     1     -22.566 -13.386  -9.571  1.00  0.00     0.045 C 
HETATM   20  C   LIG     1     -23.828 -11.600 -10.806  1.00  0.00     0.045 C 
ENDBRANCH  16  17
ENDBRANCH  14  16
ENDBRANCH   1  14
TORSDOF 8
ENDMDL
MODEL 7
REMARK VINA RESULT:      -6.1      2.451      3.883
REMARK  8 active torsions:
REMARK  status: ('A' for Active; 'I' for Inactive)
REMARK    1  A    between atoms: O_2  and  C_7 
REMARK    2  A    between atoms: O_2  and  C_11 
REMARK    3  A    between atoms: O_3  and  C_9 
REMARK    4  A    between atoms: O_3  and  C_19 
REMARK    5  A    between atoms: N_6  and  C_8 
REMARK       I    between atoms: N_6  and  C_19 
REMARK    6  A    between atoms: C_8  and  C_10 
REMARK    7  A    between atoms: C_8  and  C_11 
REMARK    8  A    between atoms: C_10  and  C_18 
ROOT
HETATM    1  C   LIG     1     -20.310 -13.971 -13.685  1.00  0.00     0.187 C 
ENDROOT
BRANCH   1   2
HETATM    2  N   LIG     1     -21.065 -13.645 -14.867  1.00  0.00    -0.323 N 
HETATM    3  C   LIG     1     -22.044 -14.459 -15.404  1.00  0.00     0.362 C 
HETATM    4  O   LIG     1     -22.394 -15.546 -14.955  1.00  0.00    -0.238 OA
HETATM    5  H   LIG     1     -20.864 -12.771 -15.344  1.00  0.00     0.165 HD
BRANCH   3   6
HETATM    6  O   LIG     1     -22.573 -13.874 -16.520  1.00  0.00    -0.294 OA
BRANCH   6   7
HETATM    7  C   LIG     1     -23.855 -13.258 -16.354  1.00  0.00     0.061 C 
HETATM    8  C   LIG     1     -23.918 -12.634 -14.960  1.00  0.00     0.046 C 
HETATM    9  C   LIG     1     -24.912 -14.351 -16.500  1.00  0.00     0.046 C 
HETATM   10  C   LIG     1     -24.028 -12.193 -17.436  1.00  0.00     0.046 C 
ENDBRANCH   6   7
ENDBRANCH   3   6
ENDBRANCH   1   2
BRANCH   1  11
HETATM   11  C   LIG     1     -18.802 -13.914 -13.961  1.00  0.00     0.045 C 
BRANCH  11  12
HETATM   12  C   LIG     1     -18.014 -15.057 -13.310  1.00  0.00     0.082 C 
HETATM   13  I   LIG     1     -19.147 -16.877 -13.370  1.00  0.00    -0.090 I 
ENDBRANCH  11  12
ENDBRANCH   1  11
BRANCH   1  14
HETATM   14  C   LIG     1     -20.695 -13.111 -12.489  1.00  0.00     0.282 C 
HETATM   15  O   LIG     1     -19.953 -12.254 -12.023  1.00  0.00    -0.263 OA
BRANCH  14  16
HETATM   16  O   LIG     1     -21.941 -13.410 -12.023  1.00  0.00    -0.310 OA
BRANCH  16  17
HETATM   17  C   LIG     1     -21.990 -14.325 -10.923  1.00  0.00     0.060 C 
HETATM   18  C   LIG     1     -22.621 -15.630 -11.404  1.00  0.00     0.045 C 
HETATM   19  C   LIG     1     -22.843 -13.685  -9.831  1.00  0.00     0.045 C 
HETATM   20  C   LIG     1     -20.565 -14.560 -10.423  1.00  0.00     0.045 C 
ENDBRANCH  16  17
ENDBRANCH  14  16
ENDBRANCH   1  14
TORSDOF 8
ENDMDL
MODEL 8
REMARK VINA RESULT:      -6.1      4.281      6.579
REMARK  8 active torsions:
REMARK  status: ('A' for Active; 'I' for Inactive)
REMARK    1  A    between atoms: O_2  and  C_7 
REMARK    2  A    between atoms: O_2  and  C_11 
REMARK    3  A    between atoms: O_3  and  C_9 
REMARK    4  A    between atoms: O_3  and  C_19 
REMARK    5  A    between atoms: N_6  and  C_8 
REMARK       I    between atoms: N_6  and  C_19 
REMARK    6  A    between atoms: C_8  and  C_10 
REMARK    7  A    between atoms: C_8  and  C_11 
REMARK    8  A    between atoms: C_10  and  C_18 
ROOT
HETATM    1  C   LIG     1     -19.993 -16.042 -10.695  1.00  0.00     0.187 C 
ENDROOT
BRANCH   1   2
HETATM    2  N   LIG     1     -21.066 -16.759 -10.055  1.00  0.00    -0.323 N 
HETATM    3  C   LIG     1     -21.368 -16.654  -8.711  1.00  0.00     0.362 C 
HETATM    4  O   LIG     1     -20.775 -15.950  -7.899  1.00  0.00    -0.238 OA
HETATM    5  H   LIG     1     -21.630 -17.387 -10.618  1.00  0.00     0.165 HD
BRANCH   3   6
HETATM    6  O   LIG     1     -22.433 -17.455  -8.411  1.00  0.00    -0.294 OA
BRANCH   6   7
HETATM    7  C   LIG     1     -23.703 -16.799  -8.323  1.00  0.00     0.061 C 
HETATM    8  C   LIG     1     -24.297 -17.074  -6.942  1.00  0.00     0.046 C 
HETATM    9  C   LIG     1     -24.597 -17.378  -9.417  1.00  0.00     0.046 C 
HETATM   10  C   LIG     1     -23.493 -15.300  -8.536  1.00  0.00     0.046 C 
ENDBRANCH   6   7
ENDBRANCH   3   6
ENDBRANCH   1   2
BRANCH   1  11
HETATM   11  C   LIG     1     -18.821 -16.977 -11.018  1.00  0.00     0.045 C 
BRANCH  11  12
HETATM   12  C   LIG     1     -19.200 -18.463 -11.013  1.00  0.00     0.082 C 
HETATM   13  I   LIG     1     -19.419 -19.185 -13.021  1.00  0.00    -0.090 I 
ENDBRANCH  11  12
ENDBRANCH   1  11
BRANCH   1  14
HETATM   14  C   LIG     1     -20.455 -15.274 -11.925  1.00  0.00     0.282 C 
HETATM   15  O   LIG     1     -19.867 -15.327 -13.000  1.00  0.00    -0.263 OA
BRANCH  14  16
HETATM   16  O   LIG     1     -21.580 -14.543 -11.681  1.00  0.00    -0.310 OA
BRANCH  16  17
HETATM   17  C   LIG     1     -21.379 -13.140 -11.482  1.00  0.00     0.060 C 
HETATM   18  C   LIG     1     -22.552 -12.387 -12.105  1.00  0.00     0.045 C 
HETATM   19  C   LIG     1     -20.070 -12.761 -12.172  1.00  0.00     0.045 C 
HETATM   20  C   LIG     1     -21.292 -12.870  -9.980  1.00  0.00     0.045 C 
ENDBRANCH  16  17
ENDBRANCH  14  16
ENDBRANCH   1  14
TORSDOF 8
ENDMDL
MODEL 9
REMARK VINA RESULT:      -6.0      4.140      6.551
REMARK  8 active torsions:
REMARK  status: ('A' for Active; 'I' for Inactive)
REMARK    1  A    between atoms: O_2  and  C_7 
REMARK    2  A    between atoms: O_2  and  C_11 
REMARK    3  A    between atoms: O_3  and  C_9 
REMARK    4  A    between atoms: O_3  and  C_19 
REMARK    5  A    between atoms: N_6  and  C_8 
REMARK       I    between atoms: N_6  and  C_19 
REMARK    6  A    between atoms: C_8  and  C_10 
REMARK    7  A    between atoms: C_8  and  C_11 
REMARK    8  A    between atoms: C_10  and  C_18 
ROOT
HETATM    1  C   LIG     1     -19.836 -16.059 -10.563  1.00  0.00     0.187 C 
ENDROOT
BRANCH   1   2
HETATM    2  N   LIG     1     -20.971 -16.771 -10.035  1.00  0.00    -0.323 N 
HETATM    3  C   LIG     1     -21.341 -16.750  -8.704  1.00  0.00     0.362 C 
HETATM    4  O   LIG     1     -20.765 -16.135  -7.811  1.00  0.00    -0.238 OA
HETATM    5  H   LIG     1     -21.531 -17.329 -10.672  1.00  0.00     0.165 HD
BRANCH   3   6
HETATM    6  O   LIG     1     -22.454 -17.521  -8.520  1.00  0.00    -0.294 OA
BRANCH   6   7
HETATM    7  C   LIG     1     -23.696 -16.813  -8.429  1.00  0.00     0.061 C 
HETATM    8  C   LIG     1     -23.428 -15.328  -8.672  1.00  0.00     0.046 C 
HETATM    9  C   LIG     1     -24.249 -17.034  -7.022  1.00  0.00     0.046 C 
HETATM   10  C   LIG     1     -24.655 -17.373  -9.478  1.00  0.00     0.046 C 
ENDBRANCH   6   7
ENDBRANCH   3   6
ENDBRANCH   1   2
BRANCH   1  11
HETATM   11  C   LIG     1     -18.921 -16.996 -11.362  1.00  0.00     0.045 C 
BRANCH  11  12
HETATM   12  C   LIG     1     -19.183 -18.484 -11.097  1.00  0.00     0.082 C 
HETATM   13  I   LIG     1     -19.462 -19.534 -12.947  1.00  0.00    -0.090 I 
ENDBRANCH  11  12
ENDBRANCH   1  11
BRANCH   1  14
HETATM   14  C   LIG     1     -20.239 -14.837 -11.377  1.00  0.00     0.282 C 
HETATM   15  O   LIG     1     -20.765 -13.850 -10.875  1.00  0.00    -0.263 OA
BRANCH  14  16
HETATM   16  O   LIG     1     -19.942 -14.982 -12.700  1.00  0.00    -0.310 OA
BRANCH  16  17
HETATM   17  C   LIG     1     -21.061 -14.977 -13.591  1.00  0.00     0.060 C 
HETATM   18  C   LIG     1     -22.327 -15.266 -12.786  1.00  0.00     0.045 C 
HETATM   19  C   LIG     1     -20.824 -16.071 -14.631  1.00  0.00     0.045 C 
HETATM   20  C   LIG     1     -21.143 -13.607 -14.263  1.00  0.00     0.045 C 
ENDBRANCH  16  17
ENDBRANCH  14  16
ENDBRANCH   1  14
TORSDOF 8
ENDMDL
