MODEL 1
REMARK VINA RESULT:      -9.1      0.000      0.000
REMARK  1 active torsions:
REMARK  status: ('A' for Active; 'I' for Inactive)
REMARK    1  A    between atoms: O_1  and  C_10 
ROOT
HETATM    1  O   LIG     1     -19.129 -21.886 -10.567  1.00  0.00    -0.293 OA
HETATM    2  C   LIG     1     -21.415 -15.082 -13.183  1.00  0.00     0.001 C 
HETATM    3  C   LIG     1     -21.435 -13.913 -12.180  1.00  0.00    -0.014 C 
HETATM    4  C   LIG     1     -20.275 -16.070 -12.916  1.00  0.00    -0.004 C 
HETATM    5  C   LIG     1     -20.446 -16.658 -11.480  1.00  0.00     0.002 C 
HETATM    6  C   LIG     1     -19.341 -17.726 -11.121  1.00  0.00    -0.016 C 
HETATM    7  C   LIG     1     -21.677 -14.493 -10.780  1.00  0.00     0.012 C 
HETATM    8  C   LIG     1     -20.613 -15.542 -10.412  1.00  0.00     0.007 C 
HETATM    9  C   LIG     1     -22.615 -13.108 -12.757  1.00  0.00     0.126 C 
HETATM   10  C   LIG     1     -21.497 -14.389 -14.540  1.00  0.00     0.008 C 
HETATM   11  C   LIG     1     -20.262 -17.203 -13.951  1.00  0.00     0.010 C 
HETATM   12  C   LIG     1     -22.398 -13.168 -14.282  1.00  0.00     0.033 C 
HETATM   13  C   LIG     1     -19.229 -18.751 -12.257  1.00  0.00    -0.068 C 
HETATM   14  C   LIG     1     -19.149 -18.200 -13.662  1.00  0.00     0.035 C 
HETATM   15  C   LIG     1     -20.148 -13.050 -12.168  1.00  0.00     0.018 C 
HETATM   16  C   LIG     1     -19.760 -18.438  -9.802  1.00  0.00     0.022 C 
HETATM   17  C   LIG     1     -17.953 -17.076 -10.920  1.00  0.00     0.020 C 
HETATM   18  C   LIG     1     -19.000 -19.728  -9.537  1.00  0.00     0.084 C 
HETATM   19  C   LIG     1     -19.178 -20.080 -12.068  1.00  0.00     0.053 C 
HETATM   20  C   LIG     1     -19.132 -20.664 -10.708  1.00  0.00     0.149 C 
ENDROOT
BRANCH   9  21
HETATM   21  O   LIG     1     -22.658 -11.775 -12.285  1.00  0.00    -0.395 OA
HETATM   22  H   LIG     1     -23.543 -11.411 -12.450  1.00  0.00     0.210 HD
ENDBRANCH   9  21
TORSDOF 1
ENDMDL
