REMARK  6 active torsions:
REMARK  status: ('A' for Active; 'I' for Inactive)
REMARK    1  A    between atoms: O_4  and  C_32 
REMARK    2  A    between atoms: N_6  and  C_18 
REMARK       I    between atoms: N_7  and  C_22 
REMARK    3  A    between atoms: C_8  and  C_11 
REMARK    4  A    between atoms: C_15  and  C_19 
REMARK    5  A    between atoms: C_18  and  C_22 
REMARK    6  A    between atoms: C_23  and  C_32 
ROOT
HETATM    1  N   LIG     1      -0.277   0.280  -0.518  1.00  0.00    -0.336 N 
HETATM    2  C   LIG     1       1.705  -0.622  -0.095  1.00  0.00    -0.014 A 
HETATM    3  C   LIG     1       0.388  -0.907  -0.371  1.00  0.00     0.055 A 
HETATM    4  C   LIG     1       1.847   0.794  -0.073  1.00  0.00    -0.000 A 
HETATM    5  C   LIG     1       0.588   1.336  -0.342  1.00  0.00     0.047 A 
HETATM    6  C   LIG     1       2.929   1.669   0.150  1.00  0.00     0.015 A 
HETATM    7  C   LIG     1       0.356   2.715  -0.399  1.00  0.00     0.048 A 
HETATM    8  C   LIG     1       1.444   3.563  -0.175  1.00  0.00     0.040 A 
HETATM    9  C   LIG     1       2.711   3.051   0.096  1.00  0.00     0.019 A 
ENDROOT
BRANCH   1  10
HETATM   10  C   LIG     1      -1.689   0.410  -0.818  1.00  0.00     0.232 C 
BRANCH  10  11
HETATM   11  C   LIG     1      -2.490   0.467   0.459  1.00  0.00     0.238 C 
HETATM   12  O   LIG     1      -1.903   0.402   1.541  1.00  0.00    -0.272 OA
HETATM   13  N   LIG     1      -3.874   0.590   0.324  1.00  0.00    -0.349 N 
HETATM   14  C   LIG     1      -4.608   0.552  -0.946  1.00  0.00     0.136 C 
HETATM   15  C   LIG     1      -4.717   0.650   1.520  1.00  0.00     0.136 C 
HETATM   16  C   LIG     1      -5.411  -0.737  -1.078  1.00  0.00     0.093 C 
HETATM   17  S   LIG     1      -6.642  -0.892   0.258  1.00  0.00    -0.166 SA
HETATM   18  C   LIG     1      -5.538  -0.624   1.682  1.00  0.00     0.093 C 
ENDBRANCH  10  11
ENDBRANCH   1  10
BRANCH   3  19
HETATM   19  C   LIG     1      -0.211  -2.250  -0.488  1.00  0.00     0.015 A 
HETATM   20  C   LIG     1      -0.794  -3.036   0.527  1.00  0.00     0.040 A 
HETATM   21  C   LIG     1      -1.201  -4.198  -0.085  1.00  0.00     0.142 A 
HETATM   22  O   LIG     1      -0.903  -4.170  -1.410  1.00  0.00    -0.334 OA
HETATM   23  C   LIG     1      -0.298  -2.976  -1.647  1.00  0.00     0.155 A 
ENDBRANCH   3  19
BRANCH   2  24
HETATM   24  C   LIG     1       2.813  -1.625   0.145  1.00  0.00     0.022 C 
HETATM   25  C   LIG     1       3.924  -1.535  -0.918  1.00  0.00     0.009 C 
HETATM   26  C   LIG     1       5.021  -2.570  -0.674  1.00  0.00     0.001 C 
HETATM   27  C   LIG     1       5.593  -2.463   0.736  1.00  0.00     0.000 C 
HETATM   28  C   LIG     1       4.500  -2.555   1.796  1.00  0.00     0.001 C 
HETATM   29  C   LIG     1       3.401  -1.520   1.564  1.00  0.00     0.009 C 
ENDBRANCH   2  24
BRANCH   8  30
HETATM   30  C   LIG     1       1.248   5.004  -0.222  1.00  0.00     0.176 C 
HETATM   31  O   LIG     1       2.127   5.852  -0.040  1.00  0.00    -0.646 OA
BRANCH  30  32
HETATM   32  O   LIG     1      -0.041   5.345  -0.498  1.00  0.00    -0.773 OA
HETATM   33  H   LIG     1      -0.163   6.317  -0.528  1.00  0.00     0.167 HD
ENDBRANCH  30  32
ENDBRANCH   8  30
TORSDOF 6
