REMARK  8 active torsions:
REMARK  status: ('A' for Active; 'I' for Inactive)
REMARK    1  A    between atoms: O_2  and  C_7 
REMARK    2  A    between atoms: O_2  and  C_11 
REMARK    3  A    between atoms: O_3  and  C_9 
REMARK    4  A    between atoms: O_3  and  C_19 
REMARK    5  A    between atoms: N_6  and  C_8 
REMARK       I    between atoms: N_6  and  C_19 
REMARK    6  A    between atoms: C_8  and  C_10 
REMARK    7  A    between atoms: C_8  and  C_11 
REMARK    8  A    between atoms: C_10  and  C_18 
ROOT
HETATM    1  C   LIG     1       0.559   0.782  -0.866  1.00  0.00     0.187 C 
ENDROOT
BRANCH   1   2
HETATM    2  N   LIG     1      -0.458   0.165  -0.053  1.00  0.00    -0.323 N 
HETATM    3  C   LIG     1      -1.787   0.077  -0.419  1.00  0.00     0.362 C 
HETATM    4  O   LIG     1      -2.270   0.503  -1.464  1.00  0.00    -0.238 OA
HETATM    5  H   LIG     1      -0.189  -0.221   0.847  1.00  0.00     0.165 HD
BRANCH   3   6
HETATM    6  O   LIG     1      -2.496  -0.560   0.560  1.00  0.00    -0.294 OA
BRANCH   6   7
HETATM    7  C   LIG     1      -3.897  -0.723   0.311  1.00  0.00     0.061 C 
HETATM    8  C   LIG     1      -4.528   0.661   0.159  1.00  0.00     0.046 C 
HETATM    9  C   LIG     1      -4.495  -1.456   1.510  1.00  0.00     0.046 C 
HETATM   10  C   LIG     1      -4.073  -1.545  -0.965  1.00  0.00     0.046 C 
ENDBRANCH   6   7
ENDBRANCH   3   6
ENDBRANCH   1   2
BRANCH   1  11
HETATM   11  C   LIG     1       0.662   2.284  -0.573  1.00  0.00     0.045 C 
BRANCH  11  12
HETATM   12  C   LIG     1       1.125   2.602   0.854  1.00  0.00     0.082 C 
HETATM   13  I   LIG     1       1.250   4.724   1.144  1.00  0.00    -0.090 I 
ENDBRANCH  11  12
ENDBRANCH   1  11
BRANCH   1  14
HETATM   14  C   LIG     1       1.909   0.090  -0.738  1.00  0.00     0.282 C 
HETATM   15  O   LIG     1       2.883   0.407  -1.412  1.00  0.00    -0.263 OA
BRANCH  14  16
HETATM   16  O   LIG     1       1.892  -0.898   0.201  1.00  0.00    -0.310 OA
BRANCH  16  17
HETATM   17  C   LIG     1       3.125  -1.600   0.387  1.00  0.00     0.060 C 
HETATM   18  C   LIG     1       3.509  -2.268  -0.932  1.00  0.00     0.045 C 
HETATM   19  C   LIG     1       2.898  -2.648   1.474  1.00  0.00     0.045 C 
HETATM   20  C   LIG     1       4.194  -0.598   0.822  1.00  0.00     0.045 C 
ENDBRANCH  16  17
ENDBRANCH  14  16
ENDBRANCH   1  14
TORSDOF 8
