REMARK  7 active torsions:
REMARK  status: ('A' for Active; 'I' for Inactive)
REMARK    1  A    between atoms: O_2  and  C_15 
REMARK    2  A    between atoms: O_2  and  C_16 
REMARK    3  A    between atoms: N_5  and  C_14 
REMARK    4  A    between atoms: N_5  and  C_20 
REMARK    5  A    between atoms: C_8  and  C_9 
REMARK    6  A    between atoms: C_9  and  C_10 
REMARK    7  A    between atoms: C_14  and  C_15 
ROOT
HETATM    1  C   LIG     1      -2.482  -0.956   0.434  1.00  0.00    -0.056 A 
HETATM    2  C   LIG     1      -1.724  -0.045   1.155  1.00  0.00     0.010 A 
HETATM    3  C   LIG     1      -1.882  -1.882  -0.406  1.00  0.00     0.010 A 
HETATM    4  C   LIG     1       0.281  -0.986   0.191  1.00  0.00     0.068 A 
HETATM    5  C   LIG     1      -0.335  -0.060   1.032  1.00  0.00     0.037 A 
HETATM    6  C   LIG     1      -0.493  -1.897  -0.528  1.00  0.00     0.037 A 
ENDROOT
BRANCH   4   7
HETATM    7  O   LIG     1       1.637  -1.001   0.070  1.00  0.00    -0.350 OA
BRANCH   7   8
HETATM    8  C   LIG     1       2.394  -0.585   1.205  1.00  0.00     0.195 C 
BRANCH   8   9
HETATM    9  C   LIG     1       3.714  -1.339   1.215  1.00  0.00     0.150 C 
BRANCH   9  10
HETATM   10  N   LIG     1       4.465  -1.077  -0.003  1.00  0.00    -0.368 N 
HETATM   11  C   LIG     1       4.403  -2.062  -1.076  1.00  0.00     0.151 C 
BRANCH  10  12
HETATM   12  C   LIG     1       5.235   0.080  -0.139  1.00  0.00     0.124 A 
HETATM   13  N   LIG     1       5.784   0.654   0.968  1.00  0.00    -0.244 NA
HETATM   14  C   LIG     1       6.521   1.772   0.782  1.00  0.00     0.119 A 
HETATM   15  C   LIG     1       6.744   2.357  -0.455  1.00  0.00     0.019 A 
HETATM   16  C   LIG     1       6.175   1.755  -1.571  1.00  0.00     0.005 A 
HETATM   17  C   LIG     1       5.410   0.604  -1.420  1.00  0.00     0.050 A 
ENDBRANCH  10  12
ENDBRANCH   9  10
ENDBRANCH   8   9
ENDBRANCH   7   8
ENDBRANCH   4   7
BRANCH   1  18
HETATM   18  C   LIG     1      -3.983  -0.940   0.567  1.00  0.00     0.063 C 
BRANCH  18  19
HETATM   19  C   LIG     1      -4.633  -0.019  -0.451  1.00  0.00     0.153 A 
HETATM   20  S   LIG     1      -4.567   1.712   0.106  1.00  0.00    -0.054 SA
HETATM   21  C   LIG     1      -6.300   1.938   0.014  1.00  0.00     0.287 A 
HETATM   22  O   LIG     1      -6.855   2.995   0.273  1.00  0.00    -0.260 OA
HETATM   23  N   LIG     1      -6.889   0.764  -0.378  1.00  0.00    -0.287 N 
HETATM   24  C   LIG     1      -6.100  -0.339  -0.628  1.00  0.00     0.239 A 
HETATM   25  H   LIG     1      -7.898   0.703  -0.471  1.00  0.00     0.172 HD
HETATM   26  O   LIG     1      -6.519  -1.443  -0.958  1.00  0.00    -0.272 OA
ENDBRANCH  18  19
ENDBRANCH   1  18
TORSDOF 7
