REMARK  3 active torsions:
REMARK  status: ('A' for Active; 'I' for Inactive)
REMARK    1  A    between atoms: N_1  and  C_10 
REMARK    2  A    between atoms: N_2  and  C_11 
REMARK    3  A    between atoms: C_10  and  C_12 
ROOT
HETATM    1  C   LIG     1      -0.419  -1.894  -0.638  1.00  0.00     0.330 C 
ENDROOT
BRANCH   1   2
HETATM    2  N   LIG     1       0.860  -1.448  -0.086  1.00  0.00     0.097 N 
HETATM    3  C   LIG     1       0.980   0.011  -0.179  1.00  0.00     0.292 C 
HETATM    4  C   LIG     1       2.291   0.497   0.446  1.00  0.00     0.153 C 
HETATM    5  N   LIG     1       3.433  -0.209  -0.142  1.00  0.00    -0.377 N 
HETATM    6  C   LIG     1       3.320  -1.673  -0.189  1.00  0.00     0.153 C 
HETATM    7  C   LIG     1       1.977  -2.087  -0.795  1.00  0.00     0.292 C 
BRANCH   5   8
HETATM    8  C   LIG     1       4.714   0.348  -0.053  1.00  0.00     0.033 A 
HETATM    9  C   LIG     1       5.077   1.164   1.031  1.00  0.00     0.048 A 
HETATM   10  C   LIG     1       6.357   1.692   1.072  1.00  0.00     0.118 A 
HETATM   11  N   LIG     1       7.297   1.473   0.125  1.00  0.00    -0.273 NA
HETATM   12  C   LIG     1       6.932   0.685  -0.912  1.00  0.00     0.118 A 
HETATM   13  C   LIG     1       5.679   0.110  -1.046  1.00  0.00     0.048 A 
ENDBRANCH   5   8
ENDBRANCH   1   2
BRANCH   1  14
HETATM   14  C   LIG     1      -1.587  -1.292   0.097  1.00  0.00     0.057 A 
HETATM   15  N   LIG     1      -2.644  -0.778  -0.563  1.00  0.00    -0.341 N 
HETATM   16  C   LIG     1      -3.507  -0.323   0.395  1.00  0.00     0.138 A 
HETATM   17  H   LIG     1      -2.776  -0.749  -1.566  1.00  0.00     0.167 HD
HETATM   18  N   LIG     1      -3.043  -0.528   1.608  1.00  0.00    -0.240 NA
HETATM   19  C   LIG     1      -4.765   0.298   0.059  1.00  0.00     0.010 A 
HETATM   20  C   LIG     1      -1.829  -1.140   1.418  1.00  0.00     0.145 A 
HETATM   21  C   LIG     1      -5.852   0.185   0.926  1.00  0.00     0.015 A 
HETATM   22  C   LIG     1      -4.895   1.011  -1.132  1.00  0.00     0.015 A 
HETATM   23  C   LIG     1      -7.068   0.786   0.602  1.00  0.00     0.001 A 
HETATM   24  C   LIG     1      -7.198   1.500  -0.590  1.00  0.00     0.000 A 
HETATM   25  C   LIG     1      -6.111   1.612  -1.457  1.00  0.00     0.001 A 
ENDBRANCH   1  14
TORSDOF 3
