REMARK  5 active torsions:
REMARK  status: ('A' for Active; 'I' for Inactive)
REMARK    1  A    between atoms: O_1  and  C_6 
REMARK    2  A    between atoms: O_1  and  C_8 
REMARK    3  A    between atoms: O_2  and  C_5 
REMARK    4  A    between atoms: C_4  and  C_5 
REMARK    5  A    between atoms: C_4  and  C_6 
ROOT
HETATM    1  C   LIG     1       1.161   0.651   0.006  1.00  0.00     0.058 C 
ENDROOT
BRANCH   1   2
HETATM    2  C   LIG     1       2.455  -0.105  -0.297  1.00  0.00     0.116 C 
HETATM    3  C   LIG     1       3.675   0.795  -0.155  1.00  0.00     0.039 C 
BRANCH   2   4
HETATM    4  O   LIG     1       2.595  -1.210   0.591  1.00  0.00    -0.396 OA
HETATM    5  H   LIG     1       1.961  -1.894   0.317  1.00  0.00     0.210 HD
ENDBRANCH   2   4
ENDBRANCH   1   2
BRANCH   1   6
HETATM    6  C   LIG     1      -0.078  -0.217  -0.182  1.00  0.00     0.181 C 
BRANCH   6   7
HETATM    7  O   LIG     1      -1.232   0.562   0.103  1.00  0.00    -0.322 OA
BRANCH   7   8
HETATM    8  C   LIG     1      -2.432  -0.083  -0.022  1.00  0.00     0.254 C 
HETATM    9  O   LIG     1      -2.591  -1.250  -0.352  1.00  0.00    -0.266 OA
HETATM   10  C   LIG     1      -3.552   0.857   0.308  1.00  0.00     0.126 C 
ENDBRANCH   7   8
ENDBRANCH   6   7
ENDBRANCH   1   6
TORSDOF 5
