REMARK  1 active torsions:
REMARK  status: ('A' for Active; 'I' for Inactive)
REMARK    1  A    between atoms: O_2  and  C_9 
ROOT
HETATM    1 BR   LIG     1      -4.359  -1.725  -0.001  1.00  0.00    -0.051 Br
HETATM    2  N   LIG     1      -1.147   3.626  -0.001  1.00  0.00    -0.191 NA
HETATM    3  C   LIG     1      -0.091   0.241   0.000  1.00  0.00    -0.002 A 
HETATM    4  C   LIG     1      -0.221  -1.168   0.000  1.00  0.00    -0.023 A 
HETATM    5  C   LIG     1       1.192   0.812   0.001  1.00  0.00     0.050 A 
HETATM    6  C   LIG     1      -1.248   1.037   0.001  1.00  0.00     0.057 A 
HETATM    7  C   LIG     1       0.936  -1.965  -0.000  1.00  0.00     0.015 A 
HETATM    8  C   LIG     1       2.331   0.005   0.001  1.00  0.00     0.069 A 
HETATM    9  C   LIG     1      -1.504  -1.740   0.000  1.00  0.00     0.031 A 
HETATM   10  C   LIG     1       2.203  -1.380  -0.000  1.00  0.00     0.037 A 
HETATM   11  C   LIG     1      -2.514   0.453   0.001  1.00  0.00     0.042 A 
HETATM   12  C   LIG     1      -2.642  -0.933   0.001  1.00  0.00     0.013 A 
HETATM   13  C   LIG     1      -1.192   2.472  -0.000  1.00  0.00     0.100 C 
ENDROOT
BRANCH   8  14
HETATM   14  O   LIG     1       3.567   0.574   0.000  1.00  0.00    -0.356 OA
HETATM   15  C   LIG     1       4.688  -0.309  -0.001  1.00  0.00     0.210 C 
ENDBRANCH   8  14
TORSDOF 1
