REMARK  20 active torsions:
REMARK  status: ('A' for Active; 'I' for Inactive)
REMARK    1  A    between atoms: N_3  and  CA_4 
REMARK    2  A    between atoms: CA_4  and  CB_5 
REMARK    3  A    between atoms: CA_4  and  C_6 
REMARK    4  A    between atoms: CA_12  and  C_14 
REMARK       I    between atoms: N_19  and  C_14 
REMARK    5  A    between atoms: N_41  and  C_24 
REMARK       I    between atoms: N_35  and  C_77 
REMARK    6  A    between atoms: C_36  and  CA_37 
REMARK    7  A    between atoms: OH_40  and  CZ_50 
REMARK    8  A    between atoms: N_41  and  CA_42 
REMARK    9  A    between atoms: CA_42  and  CB_43 
REMARK   10  A    between atoms: CA_42  and  C_44 
REMARK   11  A    between atoms: CB_43  and  CG_45 
REMARK   12  A    between atoms: OD1_54  and  CG_60 
REMARK   13  A    between atoms: N_56  and  CA_57 
REMARK   14  A    between atoms: O_63  and  C_70 
REMARK   15  A    between atoms: CA_67  and  C_70 
REMARK   16  A    between atoms: N_74  and  CA_75 
REMARK   17  A    between atoms: CA_75  and  CB_76 
REMARK   18  A    between atoms: CA_75  and  C_77 
REMARK   19  A    between atoms: N_83  and  CA_84 
REMARK   20  A    between atoms: CA_84  and  C_85 
ROOT
ATOM      1  CA  TYR A   5      15.197   2.690   0.000  1.00  0.00     0.263 C 
ENDROOT
BRANCH   1   2
ATOM      2  N   TYR A   5      16.063   2.190   0.000  1.00  0.00    -0.371 N 
ATOM      3  H   TYR A   5      16.600   1.880   0.000  1.00  0.00     0.161 HD
BRANCH   2   4
ATOM      4  C   TRP A   4      13.863  -4.810   0.000  1.00  0.00     0.087 A 
ATOM      5  O   TRP A   4      13.863  -5.810   0.000  1.00  0.00    -0.297 OA
ATOM      6  CA  TRP A   4      12.996  -4.310   0.000  1.00  0.00     0.130 A 
ATOM      7  N   TRP A   4      12.130  -4.810   0.000  1.00  0.00    -0.348 N 
ATOM      8  CB  TRP A   4      12.996  -3.310   0.000  1.00  0.00     0.084 A 
ATOM      9  H   TRP A   4      12.668  -5.120   0.000  1.00  0.00     0.191 HD
ATOM     10  C   VAL A   3      11.130  -4.310   0.000  1.00  0.00     0.244 C 
ATOM     11  O   VAL A   3      11.130  -3.310   0.000  1.00  0.00    -0.272 OA
ATOM     12  CG  TRP A   4      13.863  -2.810   0.000  1.00  0.00     0.006 A 
ATOM     13  CD2 TRP A   4      14.770  -3.215   0.000  1.00  0.00     0.032 A 
ATOM     14  CD1 TRP A   4      13.966  -1.821   0.000  1.00  0.00     0.106 A 
ATOM     15  CE2 TRP A   4      15.438  -2.471   0.000  1.00  0.00     0.054 A 
ATOM     16  CE3 TRP A   4      15.081  -4.166   0.000  1.00  0.00     0.238 A 
ATOM     17  CZ3 TRP A   4      16.059  -4.372   0.000  1.00  0.00    -0.012 A 
ATOM     18  CH2 TRP A   4      16.727  -3.628   0.000  1.00  0.00    -0.005 A 
ATOM     19  CZ2 TRP A   4      16.417  -2.677   0.000  1.00  0.00     0.004 A 
ATOM     20  NE1 TRP A   4      14.937  -1.612   0.000  1.00  0.00    -0.403 N 
ATOM     21  HE1 TRP A   4      15.188  -1.045   0.000  1.00  0.00     0.154 HD
BRANCH  10  22
ATOM     22  CA  VAL A   3      10.264  -4.810   0.000  1.00  0.00     0.571 A 
ATOM     23  N   VAL A   3       9.399  -4.310   0.000  1.00  0.00    -0.105 N 
ATOM     24  C   GLY A   2       8.399  -4.810   0.000  1.00  0.00     0.146 A 
ATOM     25  H   VAL A   3       9.935  -4.000   0.000  1.00  0.00     0.261 HD
ATOM     26  O   GLY A   2       8.399  -5.810   0.000  1.00  0.00     0.000 OA
ATOM     27  CG2 VAL A   3       9.399  -6.310   0.000  1.00  0.00     0.037 A 
ATOM     28  CB  VAL A   3      10.264  -5.810   0.000  1.00  0.00     0.078 A 
ATOM     29  CG1 VAL A   3      11.130  -6.310   0.000  1.00  0.00     0.007 C 
BRANCH  24  30
ATOM     30  CA  GLY A   2       7.532  -4.310   0.000  1.00  0.00     0.704 A 
ATOM     31  N   GLY A   2       6.666  -4.810   0.000  1.00  0.00    -0.059 N 
ATOM     32  C   VAL A   1       5.666  -4.310   0.000  1.00  0.00     0.333 C 
ATOM     33  H   GLY A   2       7.203  -5.120   0.000  1.00  0.00     0.293 HD
ATOM     34  O   VAL A   1       5.666  -3.310   0.000  1.00  0.00    -0.265 OA
BRANCH  32  35
ATOM     35  CA  VAL A   1       4.800  -4.810   0.000  1.00  0.00     0.334 C 
BRANCH  35  36
ATOM     36  N   VAL A   1       3.934  -4.310   0.000  1.00  0.00     0.091 NA
ATOM     37  H1  VAL A   1       3.934  -3.690   0.000  1.00  0.00     0.313 HD
ATOM     38  H2  VAL A   1       4.471  -4.620   0.000  1.00  0.00     0.295 HD
ENDBRANCH  35  36
BRANCH  35  39
ATOM     39  CB  VAL A   1       4.800  -5.810   0.000  1.00  0.00     0.003 C 
ATOM     40  CG1 VAL A   1       3.934  -6.310   0.000  1.00  0.00     0.038 C 
ATOM     41  CG2 VAL A   1       5.666  -6.310   0.000  1.00  0.00     0.007 C 
ENDBRANCH  35  39
ENDBRANCH  32  35
ENDBRANCH  24  30
ENDBRANCH  10  22
ENDBRANCH   2   4
ENDBRANCH   1   2
BRANCH   1  42
ATOM     42  CB  TYR A   5      15.197   3.690   0.000  1.00  0.00     0.152 C 
BRANCH  42  43
ATOM     43  CG  TYR A   5      16.063   4.190   0.000  1.00  0.00    -0.014 A 
ATOM     44  CD1 TYR A   5      16.063   5.190   0.000  1.00  0.00    -0.015 A 
ATOM     45  CE1 TYR A   5      16.929   5.690   0.000  1.00  0.00     0.033 A 
ATOM     46  CZ  TYR A   5      17.795   5.190   0.000  1.00  0.00     0.065 A 
ATOM     47  CE2 TYR A   5      17.795   4.190   0.000  1.00  0.00     0.033 A 
ATOM     48  CD2 TYR A   5      16.929   3.690   0.000  1.00  0.00    -0.015 A 
BRANCH  46  49
ATOM     49  OH  TYR A   5      18.661   5.690   0.000  1.00  0.00    -0.361 OA
ATOM     50  HH  TYR A   5      18.661   6.310   0.000  1.00  0.00     0.217 HD
ENDBRANCH  46  49
ENDBRANCH  42  43
ENDBRANCH   1  42
BRANCH   1  51
ATOM     51  C   TYR A   5      14.331   2.190   0.000  1.00  0.00     0.162 A 
ATOM     52  O   TYR A   5      14.331   1.190   0.000  1.00  0.00    -0.293 OA
ATOM     53  N   GLY A   6      13.331   2.690   0.000  1.00  0.00    -0.068 N 
ATOM     54  H   GLY A   6      13.868   3.000   0.000  1.00  0.00     0.346 HD
BRANCH  53  55
ATOM     55  CA  GLY A   6      12.465   2.190   0.000  1.00  0.00     0.841 C 
BRANCH  55  56
ATOM     56  C   GLY A   6      11.599   2.690   0.000  1.00  0.00     0.173 A 
ATOM     57  O   GLY A   6      11.599   3.690   0.000  1.00  0.00    -0.293 OA
ATOM     58  N   MET A   7      10.599   2.190   0.000  1.00  0.00    -0.069 N 
ATOM     59  H   MET A   7      11.136   1.880   0.000  1.00  0.00     0.346 HD
BRANCH  58  60
ATOM     60  CA  MET A   7       9.733   2.690   0.000  1.00  0.00     0.591 C 
BRANCH  60  61
ATOM     61  CB  MET A   7       9.733   3.690   0.000  1.00  0.00     0.165 A 
ATOM     62  CG  MET A   7       8.867   4.190   0.000  1.00  0.00     0.085 A 
ATOM     63  SD  MET A   7       8.867   5.190   0.000  1.00  0.00    -0.324 SA
ATOM     64  CE  MET A   7       8.001   5.690   0.000  1.00  0.00     0.189 C 
ENDBRANCH  60  61
BRANCH  60  65
ATOM     65  C   MET A   7       8.867   2.190   0.000  1.00  0.00     0.259 A 
ATOM     66  O   MET A   7       8.867   1.190   0.000  1.00  0.00    -0.277 OA
ATOM     67  N   ASP A   8       7.867   2.690   0.000  1.00  0.00    -0.064 N 
ATOM     68  H   ASP A   8       8.404   3.000   0.000  1.00  0.00     0.363 HD
BRANCH  67  69
ATOM     69  CA  ASP A   8       7.001   2.190   0.000  1.00  0.00     0.521 A 
ATOM     70  C   ASP A   8       6.135   2.690   0.000  1.00  0.00    -0.014 A 
ATOM     71  O   ASP A   8       6.135   3.690   0.000  1.00  0.00     0.000 OA
ATOM     72  N   VAL A   9       5.135   2.190   0.000  1.00  0.00     0.000 N 
ATOM     73  CG2 VAL A   9       5.135   4.190   0.000  1.00  0.00     0.044 A 
ATOM     74  CB  VAL A   9       4.269   3.690   0.000  1.00  0.00     0.015 A 
ATOM     75  CA  VAL A   9       4.269   2.690   0.000  1.00  0.00     0.066 A 
ATOM     76  CG1 VAL A   9       3.403   4.190   0.000  1.00  0.00     0.034 C 
ATOM     77  H   VAL A   9       5.672   1.880   0.000  1.00  0.00     0.000 HD
ATOM     78  OD2 ASP A   8       5.269   1.190   0.000  1.00  0.00     0.000 OA
ATOM     79  CG  ASP A   8       6.135   0.690   0.000  1.00  0.00     0.067 A 
ATOM     80  CB  ASP A   8       7.001   1.190   0.000  1.00  0.00     0.213 A 
BRANCH  75  81
ATOM     81  C   VAL A   9       3.403   2.190   0.000  1.00  0.00     0.139 C 
ATOM     82  OXT VAL A   9       3.403   1.190   0.000  1.00  0.00    -0.650 OA
BRANCH  81  83
ATOM     83  O   VAL A   9       2.537   2.690   0.000  1.00  0.00    -0.776 OA
ATOM     84  H   VAL A   9       2.000   2.380   0.000  1.00  0.00     0.167 HD
ENDBRANCH  81  83
ENDBRANCH  75  81
BRANCH  79  85
ATOM     85  OD1 ASP A   8       6.135  -0.310   0.000  1.00  0.00    -0.392 OA
ATOM     86  HD1 ASP A   8       5.598  -0.620   0.000  1.00  0.00     0.210 HD
ENDBRANCH  79  85
ENDBRANCH  67  69
ENDBRANCH  60  65
ENDBRANCH  58  60
ENDBRANCH  55  56
ENDBRANCH  53  55
ENDBRANCH   1  51
TORSDOF 20
