REMARK  16 active torsions:
REMARK  status: ('A' for Active; 'I' for Inactive)
REMARK    1  A    between atoms: O_2  and  C_44 
REMARK    2  A    between atoms: O_6  and  C_50 
REMARK       I    between atoms: N_11  and  C_41 
REMARK    3  A    between atoms: N_11  and  C_47 
REMARK    4  A    between atoms: N_12  and  C_43 
REMARK    5  A    between atoms: N_12  and  C_48 
REMARK    6  A    between atoms: N_13  and  C_51 
REMARK    7  A    between atoms: C_14  and  C_16 
REMARK    8  A    between atoms: C_19  and  C_23 
REMARK    9  A    between atoms: C_19  and  C_27 
REMARK   10  A    between atoms: C_24  and  C_41 
REMARK   11  A    between atoms: C_25  and  C_35 
REMARK   12  A    between atoms: C_30  and  C_44 
REMARK   13  A    between atoms: C_33  and  C_39 
REMARK   14  A    between atoms: C_39  and  C_46 
REMARK   15  A    between atoms: C_47  and  C_50 
REMARK   16  A    between atoms: C_48  and  C_51 
ROOT
HETATM    1  O   LIG     1      10.479  -0.238   0.000  1.00  0.00     0.000 OA
HETATM    2  N   LIG     1       6.737  -1.000   0.000  1.00  0.00    -0.305 NA
HETATM    3  N   LIG     1       8.273  -2.370   0.000  1.00  0.00    -0.394 N 
HETATM    4  N   LIG     1       6.771  -3.739   0.000  1.00  0.00    -0.297 NA
HETATM    5  N   LIG     1       5.267  -2.370   0.000  1.00  0.00    -0.394 N 
HETATM    6  C   LIG     1       7.238   0.602   0.000  1.00  0.00     0.114 A 
HETATM    7  C   LIG     1       6.237   0.602   0.000  1.00  0.00     0.029 A 
HETATM    8  C   LIG     1       7.573  -0.332   0.000  1.00  0.00     0.063 A 
HETATM    9  C   LIG     1       7.499   1.567   0.000  1.00  0.00     0.003 A 
HETATM   10  C   LIG     1       5.935  -0.366   0.000  1.00  0.00     0.069 A 
HETATM   11  C   LIG     1       7.271  -5.308   0.000  1.00  0.00     0.046 A 
HETATM   12  C   LIG     1       6.270  -5.308   0.000  1.00  0.00     0.021 A 
HETATM   13  C   LIG     1       8.540  -0.633   0.000  1.00  0.00    -0.041 A 
HETATM   14  C   LIG     1       5.644   1.407   0.000  1.00  0.00     0.054 A 
HETATM   15  C   LIG     1       7.573  -4.340   0.000  1.00  0.00     0.099 A 
HETATM   16  C   LIG     1       6.794   2.276   0.000  1.00  0.00     0.242 A 
HETATM   17  C   LIG     1       8.840  -1.568   0.000  1.00  0.00     0.072 A 
HETATM   18  C   LIG     1       5.969  -4.374   0.000  1.00  0.00     0.075 A 
HETATM   19  C   LIG     1       4.968  -0.633   0.000  1.00  0.00     0.011 A 
HETATM   20  C   LIG     1       8.873  -3.105   0.000  1.00  0.00     0.068 A 
HETATM   21  C   LIG     1       9.275   0.045   0.000  1.00  0.00     0.101 A 
HETATM   22  C   LIG     1       9.809  -1.835   0.000  1.00  0.00     0.077 A 
HETATM   23  C   LIG     1       5.599  -6.050   0.000  1.00  0.00     0.026 C 
HETATM   24  C   LIG     1       4.700  -1.601   0.000  1.00  0.00     0.067 A 
HETATM   25  C   LIG     1       8.574  -4.072   0.000  1.00  0.00     0.014 A 
HETATM   26  C   LIG     1       9.809  -2.837   0.000  1.00  0.00     0.013 A 
HETATM   27  C   LIG     1       5.001  -4.072   0.000  1.00  0.00     0.011 A 
HETATM   28  C   LIG     1       4.700  -3.138   0.000  1.00  0.00     0.067 A 
HETATM   29  C   LIG     1       3.732  -1.869   0.000  1.00  0.00     0.013 A 
HETATM   30  C   LIG     1       3.732  -2.870   0.000  1.00  0.00     0.073 A 
HETATM   31  C   LIG     1      10.608  -3.439   0.000  1.00  0.00     0.060 C 
HETATM   32  C   LIG     1      10.605  -1.230   0.000  1.00  0.00     0.139 A 
HETATM   33  C   LIG     1       2.936  -1.264   0.000  1.00  0.00     0.060 C 
HETATM   34  H   LIG     1       7.653  -2.391   0.000  1.00  0.00     0.155 HD
HETATM   35  H   LIG     1       5.887  -2.370   0.000  1.00  0.00     0.155 HD
ENDROOT
BRANCH  16  36
HETATM   36  C   LIG     1       7.055   3.241   0.000  1.00  0.00     0.186 C 
HETATM   37  O   LIG     1       8.021   3.498   0.000  1.00  0.00    -0.286 OA
HETATM   38  N   LIG     1       6.349   3.950   0.000  1.00  0.00    -0.074 N 
HETATM   39  H   LIG     1       5.750   3.791   0.000  1.00  0.00     0.268 HD
BRANCH  38  40
HETATM   40  C   LIG     1       6.611   4.916   0.000  1.00  0.00     0.632 C 
BRANCH  40  41
HETATM   41  C   LIG     1       5.905   5.625   0.000  1.00  0.00     0.097 C 
HETATM   42  C   LIG     1       4.939   5.368   0.000  1.00  0.00     0.100 C 
BRANCH  41  43
HETATM   43  O   LIG     1       6.167   6.590   0.000  1.00  0.00    -0.401 OA
HETATM   44  H   LIG     1       5.729   7.029   0.000  1.00  0.00     0.209 HD
ENDBRANCH  41  43
ENDBRANCH  40  41
ENDBRANCH  38  40
ENDBRANCH  16  36
BRANCH  21  45
HETATM   45  C   LIG     1       9.402   1.037   0.000  1.00  0.00     0.079 C 
HETATM   46  O   LIG     1       8.607   1.643   0.000  1.00  0.00     0.000 OA
BRANCH  45  47
HETATM   47  O   LIG     1      10.325   1.423   0.000  1.00  0.00    -0.357 OA
HETATM   48  C   LIG     1      11.120   0.817   0.000  1.00  0.00     0.209 C 
ENDBRANCH  45  47
ENDBRANCH  21  45
BRANCH  30  49
HETATM   49  C   LIG     1       2.866  -3.370   0.000  1.00  0.00     0.058 C 
HETATM   50  O   LIG     1       2.866  -4.370   0.000  1.00  0.00    -0.313 OA
HETATM   51  C   LIG     1       2.000  -2.870   0.000  1.00  0.00     0.202 C 
ENDBRANCH  30  49
BRANCH  32  52
HETATM   52  N   LIG     1      11.527  -1.616   0.000  1.00  0.00    -0.097 N 
HETATM   53  H   LIG     1      11.606  -2.231   0.000  1.00  0.00     0.265 HD
BRANCH  52  54
HETATM   54  C   LIG     1      12.323  -1.010   0.000  1.00  0.00     0.637 C 
BRANCH  54  55
HETATM   55  C   LIG     1      13.246  -1.397   0.000  1.00  0.00     0.627 C 
BRANCH  55  56
HETATM   56  N   LIG     1      14.041  -0.791   0.000  1.00  0.00    -0.127 N 
HETATM   57  C   LIG     1      14.964  -1.177   0.000  1.00  0.00     0.250 C 
HETATM   58  C   LIG     1      13.915   0.201   0.000  1.00  0.00     0.250 C 
ENDBRANCH  55  56
ENDBRANCH  54  55
ENDBRANCH  52  54
ENDBRANCH  32  52
BRANCH  11  59
HETATM   59  C   LIG     1       7.864  -6.113   0.000  1.00  0.00     0.005 C 
HETATM   60  C   LIG     1       7.463  -7.029   0.000  1.00  0.00     0.010 C 
ENDBRANCH  11  59
TORSDOF 16
