REMARK  1 active torsions:
REMARK  status: ('A' for Active; 'I' for Inactive)
REMARK    1  A    between atoms: C_7  and  C_14 
ROOT
HETATM    1  O   LIG     1       0.343   0.284   0.004  1.00  0.00    -0.308 OA
HETATM    2  O   LIG     1      -0.096  -3.757  -0.133  1.00  0.00    -0.287 OA
HETATM    3  C   LIG     1      -0.924  -0.255  -0.006  1.00  0.00     0.101 A 
HETATM    4  C   LIG     1      -2.018   0.640   0.035  1.00  0.00     0.009 A 
HETATM    5  C   LIG     1      -1.134  -1.634  -0.055  1.00  0.00     0.049 A 
HETATM    6  C   LIG     1      -3.332   0.108   0.026  1.00  0.00    -0.023 A 
HETATM    7  C   LIG     1       1.437  -0.564  -0.041  1.00  0.00     0.090 A 
HETATM    8  C   LIG     1      -2.428  -2.152  -0.064  1.00  0.00     0.019 A 
HETATM    9  C   LIG     1      -3.518  -1.283  -0.024  1.00  0.00     0.013 A 
HETATM   10  C   LIG     1       0.025  -2.540  -0.094  1.00  0.00     0.187 A 
HETATM   11  C   LIG     1      -1.865   2.042   0.087  1.00  0.00     0.015 A 
HETATM   12  C   LIG     1       1.355  -1.902  -0.082  1.00  0.00     0.093 A 
HETATM   13  C   LIG     1      -4.435   0.977   0.068  1.00  0.00     0.012 A 
HETATM   14  C   LIG     1      -2.972   2.891   0.128  1.00  0.00     0.001 A 
HETATM   15  C   LIG     1      -4.256   2.358   0.118  1.00  0.00     0.001 A 
ENDROOT
BRANCH   7  16
HETATM   16  C   LIG     1       2.738   0.135  -0.017  1.00  0.00    -0.002 A 
HETATM   17  C   LIG     1       3.851  -0.471   0.571  1.00  0.00     0.014 A 
HETATM   18  C   LIG     1       5.079   0.189   0.593  1.00  0.00     0.001 A 
HETATM   19  C   LIG     1       5.199   1.459   0.028  1.00  0.00     0.000 A 
HETATM   20  C   LIG     1       4.090   2.068  -0.560  1.00  0.00     0.001 A 
HETATM   21  C   LIG     1       2.861   1.407  -0.582  1.00  0.00     0.014 A 
ENDBRANCH   7  16
TORSDOF 1
