REMARK  9 active torsions:
REMARK  status: ('A' for Active; 'I' for Inactive)
REMARK    1  A    between atoms: O_2  and  C_16 
REMARK    2  A    between atoms: O_3  and  C_23 
REMARK    3  A    between atoms: C_7  and  C_8 
REMARK    4  A    between atoms: C_7  and  C_12 
REMARK    5  A    between atoms: C_8  and  C_9 
REMARK    6  A    between atoms: C_9  and  C_13 
REMARK    7  A    between atoms: C_13  and  C_15 
REMARK    8  A    between atoms: C_16  and  C_17 
REMARK    9  A    between atoms: C_18  and  C_23 
ROOT
HETATM    1  N   LIG     1      -0.009  -0.696  -1.069  1.00  0.00    -0.273 NA
HETATM    2  N   LIG     1      -0.004  -0.841  -2.135  1.00  0.00     0.044 N 
HETATM    3  C   LIG     1      -0.016  -0.500   0.382  1.00  0.00     0.214 C 
HETATM    4  C   LIG     1      -1.195  -0.584   1.024  1.00  0.00     0.123 C 
ENDROOT
BRANCH   3   5
HETATM    5  C   LIG     1       1.299  -0.224   1.051  1.00  0.00     0.194 C 
HETATM    6  O   LIG     1       1.375  -0.004   2.258  1.00  0.00    -0.289 OA
BRANCH   5   7
HETATM    7  C   LIG     1       2.523  -0.167   0.145  1.00  0.00     0.088 C 
BRANCH   7   8
HETATM    8  C   LIG     1       3.838   0.141   0.876  1.00  0.00     0.020 C 
BRANCH   8   9
HETATM    9  C   LIG     1       5.103   0.337  -0.016  1.00  0.00    -0.030 C 
HETATM   10  C   LIG     1       4.902   1.538  -0.964  1.00  0.00     0.019 C 
HETATM   11  C   LIG     1       6.286   0.683   0.916  1.00  0.00     0.019 C 
BRANCH   9  12
HETATM   12  C   LIG     1       5.463  -0.956  -0.731  1.00  0.00    -0.028 C 
HETATM   13  C   LIG     1       5.619  -1.148  -2.047  1.00  0.00     0.007 C 
ENDBRANCH   9  12
ENDBRANCH   8   9
ENDBRANCH   7   8
ENDBRANCH   5   7
ENDBRANCH   3   5
BRANCH   4  14
HETATM   14  O   LIG     1      -1.298  -0.409   2.393  1.00  0.00    -0.356 OA
HETATM   15  H   LIG     1      -0.418  -0.233   2.764  1.00  0.00     0.218 HD
ENDBRANCH   4  14
BRANCH   4  16
HETATM   16  C   LIG     1      -2.493  -0.852   0.397  1.00  0.00     0.017 A 
HETATM   17  C   LIG     1      -3.298   0.184  -0.064  1.00  0.00     0.052 A 
HETATM   18  C   LIG     1      -4.527  -0.106  -0.656  1.00  0.00     0.018 A 
HETATM   19  C   LIG     1      -4.944  -1.431  -0.783  1.00  0.00     0.001 A 
HETATM   20  C   LIG     1      -4.132  -2.466  -0.319  1.00  0.00     0.001 A 
HETATM   21  C   LIG     1      -2.902  -2.175   0.273  1.00  0.00     0.015 A 
BRANCH  17  22
HETATM   22  C   LIG     1      -2.898   1.582   0.050  1.00  0.00     0.293 C 
HETATM   23  O   LIG     1      -2.179   2.030   0.950  1.00  0.00    -0.259 OA
BRANCH  22  24
HETATM   24  O   LIG     1      -3.419   2.334  -0.966  1.00  0.00    -0.322 OA
HETATM   25  C   LIG     1      -3.096   3.729  -0.965  1.00  0.00     0.213 C 
ENDBRANCH  22  24
ENDBRANCH  17  22
ENDBRANCH   4  16
TORSDOF 9
