REMARK  1 active torsions:
REMARK  status: ('A' for Active; 'I' for Inactive)
REMARK    1  A    between atoms: N_3  and  N_4 
ROOT
HETATM    1  O   LIG     1      -2.484  -2.479   0.141  1.00  0.00    -0.292 OA
HETATM    2  O   LIG     1       3.515  -0.704  -0.199  1.00  0.00    -0.267 OA
HETATM    3  N   LIG     1       1.393   0.243   0.045  1.00  0.00    -0.244 N 
HETATM    4  C   LIG     1      -2.333   1.130  -0.083  1.00  0.00    -0.036 C 
HETATM    5  C   LIG     1      -0.849   1.329   0.295  1.00  0.00     0.069 C 
HETATM    6  C   LIG     1      -2.851  -0.160   0.562  1.00  0.00     0.093 C 
HETATM    7  C   LIG     1       0.010   0.090   0.134  1.00  0.00     0.047 A 
HETATM    8  C   LIG     1      -2.501   1.072  -1.617  1.00  0.00     0.015 C 
HETATM    9  C   LIG     1      -3.153   2.323   0.440  1.00  0.00     0.015 C 
HETATM   10  C   LIG     1      -0.513  -1.153   0.077  1.00  0.00     0.034 A 
HETATM   11  C   LIG     1      -1.987  -1.356   0.228  1.00  0.00     0.162 C 
HETATM   12  C   LIG     1       0.354  -2.298  -0.098  1.00  0.00     0.022 A 
HETATM   13  C   LIG     1       2.292  -0.812  -0.118  1.00  0.00     0.262 A 
HETATM   14  C   LIG     1       1.680  -2.165  -0.196  1.00  0.00     0.077 A 
ENDROOT
BRANCH   3  15
HETATM   15  N   LIG     1       1.943   1.522   0.147  1.00  0.00    -0.230 NA
HETATM   16  C   LIG     1       2.673   1.835  -1.073  1.00  0.00     0.136 C 
HETATM   17  C   LIG     1       2.810   1.585   1.315  1.00  0.00     0.136 C 
ENDBRANCH   3  15
TORSDOF 1
