REMARK  1 active torsions:
REMARK  status: ('A' for Active; 'I' for Inactive)
REMARK    1  A    between atoms: O_4  and  C_17 
ROOT
HETATM    1  O   LIG     1       3.431   1.127   0.416  1.00  0.00    -0.318 OA
HETATM    2  O   LIG     1       4.769  -0.628  -0.498  1.00  0.00    -0.331 OA
HETATM    3  O   LIG     1      -0.303  -1.741   0.315  1.00  0.00    -0.273 OA
HETATM    4  O   LIG     1      -4.720  -1.776  -0.110  1.00  0.00    -0.292 OA
HETATM    5  O   LIG     1      -2.097  -3.173   0.266  1.00  0.00    -0.259 OA
HETATM    6  C   LIG     1       2.650  -1.197   0.552  1.00  0.00     0.105 A 
HETATM    7  C   LIG     1       1.556  -0.223   0.353  1.00  0.00     0.023 A 
HETATM    8  C   LIG     1       3.869  -0.246   0.569  1.00  0.00     0.284 A 
HETATM    9  C   LIG     1       0.191  -0.420   0.241  1.00  0.00     0.103 A 
HETATM   10  C   LIG     1      -0.670   0.671   0.062  1.00  0.00     0.039 A 
HETATM   11  C   LIG     1       2.069   1.061   0.293  1.00  0.00     0.084 A 
HETATM   12  C   LIG     1      -2.094   0.394  -0.050  1.00  0.00    -0.022 A 
HETATM   13  C   LIG     1      -3.157   1.425  -0.243  1.00  0.00     0.048 A 
HETATM   14  C   LIG     1       2.968  -2.060  -0.605  1.00  0.00     0.012 A 
HETATM   15  C   LIG     1      -2.526  -0.866   0.021  1.00  0.00     0.092 A 
HETATM   16  C   LIG     1      -0.124   1.966   0.001  1.00  0.00     0.084 A 
HETATM   17  C   LIG     1      -4.455   0.621  -0.295  1.00  0.00     0.089 A 
HETATM   18  C   LIG     1       1.256   2.167   0.118  1.00  0.00     0.075 A 
HETATM   19  C   LIG     1      -3.987  -0.798  -0.125  1.00  0.00     0.166 A 
HETATM   20  C   LIG     1       4.139  -1.690  -1.107  1.00  0.00     0.135 A 
HETATM   21  C   LIG     1      -1.663  -2.030   0.208  1.00  0.00     0.302 A 
ENDROOT
BRANCH  16  22
HETATM   22  O   LIG     1      -0.891   3.082  -0.169  1.00  0.00    -0.355 OA
HETATM   23  C   LIG     1      -0.210   4.333  -0.213  1.00  0.00     0.210 C 
ENDBRANCH  16  22
TORSDOF 1
