REMARK  1 active torsions:
REMARK  status: ('A' for Active; 'I' for Inactive)
REMARK    1  A    between atoms: N_7  and  C_13 
ROOT
HETATM    1  N   LIG     1      -2.002  -1.453  -0.765  1.00  0.00    -0.048 NA
HETATM    2  N   LIG     1      -2.615  -1.812   0.253  1.00  0.00    -0.160 NA
HETATM    3  N   LIG     1      -3.193  -2.147   1.178  1.00  0.00     0.068 N 
ENDROOT
BRANCH   1   4
HETATM    4  C   LIG     1      -0.773  -0.915  -0.481  1.00  0.00     0.236 A 
HETATM    5  N   LIG     1       0.250  -1.723  -0.436  1.00  0.00    -0.126 NA
HETATM    6  N   LIG     1       1.432  -1.122  -0.150  1.00  0.00    -0.136 N 
HETATM    7  N   LIG     1       2.596  -1.785  -0.058  1.00  0.00     0.020 NA
HETATM    8  C   LIG     1       1.652   0.213   0.091  1.00  0.00     0.196 A 
HETATM    9  N   LIG     1       3.503  -0.858   0.234  1.00  0.00     0.020 NA
HETATM   10  N   LIG     1       2.930   0.392   0.330  1.00  0.00    -0.140 NA
HETATM   11  C   LIG     1       0.531   1.113   0.043  1.00  0.00     0.047 A 
HETATM   12  C   LIG     1      -0.712   0.553  -0.247  1.00  0.00     0.122 A 
HETATM   13  C   LIG     1       0.598   2.482   0.263  1.00  0.00     0.019 A 
HETATM   14  N   LIG     1      -1.865   1.249  -0.331  1.00  0.00    -0.256 NA
HETATM   15  C   LIG     1      -1.761   2.580  -0.111  1.00  0.00     0.117 A 
HETATM   16  C   LIG     1      -0.571   3.235   0.185  1.00  0.00     0.020 A 
ENDBRANCH   1   4
TORSDOF 1
