REMARK  1 active torsions:
REMARK  status: ('A' for Active; 'I' for Inactive)
REMARK    1  A    between atoms: C_4  and  C_6 
ROOT
HETATM    1  C   LIG     1      -1.550   0.778   0.522  1.00  0.00     0.016 C 
HETATM    2  C   LIG     1      -2.387  -0.746  -0.489  1.00  0.00     0.010 C 
HETATM    3  C   LIG     1      -0.411   0.251  -0.303  1.00  0.00    -0.072 C 
HETATM    4  C   LIG     1      -2.278  -0.519   1.079  1.00  0.00     0.017 C 
HETATM    5  C   LIG     1      -2.792   0.790  -0.468  1.00  0.00     0.017 C 
HETATM    6  C   LIG     1      -0.975  -0.764  -0.975  1.00  0.00    -0.018 C 
ENDROOT
BRANCH   3   7
HETATM    7  C   LIG     1       0.934   0.802  -0.283  1.00  0.00     0.047 A 
HETATM    8  C   LIG     1       2.123  -0.034   0.092  1.00  0.00     0.084 A 
HETATM    9 BR   LIG     1       1.949  -1.871   0.579  1.00  0.00    -0.072 Br
HETATM   10 BR   LIG     1       3.782   0.308  -0.798  1.00  0.00    -0.072 Br
HETATM   11  C   LIG     1       1.606   1.005   1.044  1.00  0.00     0.045 A 
ENDBRANCH   3   7
TORSDOF 1
