REMARK  6 active torsions:
REMARK  status: ('A' for Active; 'I' for Inactive)
REMARK    1  A    between atoms: S_2  and  N_9 
REMARK    2  A    between atoms: S_2  and  C_15 
REMARK    3  A    between atoms: O_6  and  C_19 
REMARK    4  A    between atoms: N_10  and  C_18 
REMARK       I    between atoms: N_10  and  C_21 
REMARK    5  A    between atoms: C_21  and  C_22 
REMARK    6  A    between atoms: C_23  and  C_26 
ROOT
HETATM    1  C   LIG     1       3.273   0.828   0.949  1.00  0.00     0.077 A 
HETATM    2  C   LIG     1       2.049   0.179   0.968  1.00  0.00     0.057 A 
HETATM    3  C   LIG     1       3.376   2.164   0.595  1.00  0.00     0.028 A 
HETATM    4  C   LIG     1       0.896   0.885   0.624  1.00  0.00     0.070 A 
HETATM    5  C   LIG     1       0.983   2.230   0.266  1.00  0.00     0.095 A 
HETATM    6  C   LIG     1       2.223   2.870   0.251  1.00  0.00     0.040 A 
ENDROOT
BRANCH   4   7
HETATM    7  N   LIG     1      -0.338   0.232   0.643  1.00  0.00    -0.319 N 
HETATM    8  C   LIG     1      -0.614  -1.109   0.976  1.00  0.00     0.280 C 
HETATM    9  O   LIG     1       0.244  -1.923   1.311  1.00  0.00    -0.265 OA
HETATM   10  H   LIG     1      -1.135   0.807   0.380  1.00  0.00     0.169 HD
BRANCH   8  11
HETATM   11  C   LIG     1      -2.028  -1.504   0.856  1.00  0.00     0.144 A 
HETATM   12  O   LIG     1      -2.870  -0.549   0.449  1.00  0.00    -0.304 OA
HETATM   13  C   LIG     1      -4.087  -1.152   0.420  1.00  0.00     0.088 A 
HETATM   14  C   LIG     1      -3.985  -2.468   0.807  1.00  0.00     0.041 A 
HETATM   15  C   LIG     1      -2.616  -2.687   1.093  1.00  0.00     0.046 A 
BRANCH  13  16
HETATM   16  C   LIG     1      -5.178  -0.316   0.005  1.00  0.00     0.019 A 
HETATM   17  C   LIG     1      -5.561  -0.199  -1.338  1.00  0.00     0.047 A 
HETATM   18 CL   LIG     1      -4.738  -1.058  -2.593  1.00  0.00    -0.083 Cl
HETATM   19  C   LIG     1      -6.627   0.625  -1.698  1.00  0.00     0.025 A 
HETATM   20  C   LIG     1      -7.319   1.338  -0.719  1.00  0.00     0.002 A 
HETATM   21  C   LIG     1      -6.945   1.227   0.620  1.00  0.00     0.001 A 
HETATM   22  C   LIG     1      -5.879   0.403   0.981  1.00  0.00     0.016 A 
ENDBRANCH  13  16
ENDBRANCH   8  11
ENDBRANCH   4   7
BRANCH   5  23
HETATM   23  O   LIG     1      -0.131   2.938  -0.074  1.00  0.00    -0.354 OA
HETATM   24  C   LIG     1      -0.502   2.941  -1.451  1.00  0.00     0.210 C 
ENDBRANCH   5  23
BRANCH   1  25
HETATM   25  S   LIG     1       4.732  -0.065   1.384  1.00  0.00     0.243 S 
HETATM   26  O   LIG     1       5.720   0.894   1.833  1.00  0.00    -0.206 OA
HETATM   27  O   LIG     1       4.340  -1.179   2.221  1.00  0.00    -0.206 OA
BRANCH  25  28
HETATM   28  N   LIG     1       5.189  -0.660  -0.155  1.00  0.00    -0.202 NA
HETATM   29  C   LIG     1       4.187  -1.537  -0.828  1.00  0.00     0.134 C 
HETATM   30  C   LIG     1       4.838  -2.176  -2.047  1.00  0.00     0.183 C 
HETATM   31  O   LIG     1       5.320  -1.168  -2.938  1.00  0.00    -0.389 OA
HETATM   32  C   LIG     1       6.317  -0.361  -2.309  1.00  0.00     0.183 C 
HETATM   33  C   LIG     1       5.732   0.358  -1.102  1.00  0.00     0.134 C 
ENDBRANCH  25  28
ENDBRANCH   1  25
TORSDOF 6
