REMARK  7 active torsions:
REMARK  status: ('A' for Active; 'I' for Inactive)
REMARK    1  A    between atoms: S_3  and  N_8 
REMARK    2  A    between atoms: S_3  and  C_11 
REMARK    3  A    between atoms: N_7  and  C_10 
REMARK    4  A    between atoms: N_7  and  C_12 
REMARK       I    between atoms: N_7  and  C_13 
REMARK    5  A    between atoms: C_10  and  C_11 
REMARK    6  A    between atoms: C_12  and  C_14 
REMARK    7  A    between atoms: C_13  and  C_15 
ROOT
HETATM    1  O   LIG     1      -0.958  -1.794   1.942  1.00  0.00    -0.267 OA
HETATM    2  N   LIG     1      -0.771   0.238   0.759  1.00  0.00    -0.341 N 
HETATM    3  C   LIG     1      -0.365  -1.055   1.156  1.00  0.00     0.255 C 
ENDROOT
BRANCH   2   4
HETATM    4  C   LIG     1      -0.070   1.094  -0.159  1.00  0.00     0.143 C 
BRANCH   4   5
HETATM    5  C   LIG     1       0.932   1.989   0.544  1.00  0.00     0.183 C 
BRANCH   5   6
HETATM    6  S   LIG     1       1.834   3.016  -0.593  1.00  0.00     0.227 S 
HETATM    7  O   LIG     1       2.638   2.151  -1.435  1.00  0.00    -0.206 OA
HETATM    8  O   LIG     1       0.890   3.950  -1.177  1.00  0.00    -0.206 OA
BRANCH   6   9
HETATM    9  N   LIG     1       2.842   3.870   0.488  1.00  0.00    -0.324 N 
HETATM   10  C   LIG     1       4.099   3.249   0.942  1.00  0.00     0.159 C 
HETATM   11  H   LIG     1       2.380   4.457   1.194  1.00  0.00     0.171 HD
ENDBRANCH   6   9
ENDBRANCH   5   6
ENDBRANCH   4   5
ENDBRANCH   2   4
BRANCH   2  12
HETATM   12  C   LIG     1      -2.015   0.768   1.328  1.00  0.00     0.185 C 
BRANCH  12  13
HETATM   13  C   LIG     1      -3.210   0.420   0.488  1.00  0.00     0.052 A 
HETATM   14  N   LIG     1      -3.538   1.303  -0.476  1.00  0.00    -0.264 NA
HETATM   15  C   LIG     1      -4.615   0.985  -1.230  1.00  0.00     0.117 A 
HETATM   16  C   LIG     1      -5.367  -0.166  -1.061  1.00  0.00     0.019 A 
HETATM   17  C   LIG     1      -4.991  -1.047  -0.053  1.00  0.00     0.003 A 
HETATM   18  C   LIG     1      -3.889  -0.755   0.743  1.00  0.00     0.029 A 
ENDBRANCH  12  13
ENDBRANCH   2  12
BRANCH   3  19
HETATM   19  C   LIG     1       0.876  -1.588   0.572  1.00  0.00     0.053 A 
HETATM   20  C   LIG     1       0.868  -2.309  -0.613  1.00  0.00     0.051 A 
HETATM   21 CL   LIG     1      -0.593  -2.625  -1.480  1.00  0.00    -0.083 Cl
HETATM   22  C   LIG     1       2.068  -2.797  -1.129  1.00  0.00     0.048 A 
HETATM   23  C   LIG     1       3.265  -2.559  -0.454  1.00  0.00     0.035 A 
HETATM   24 CL   LIG     1       4.747  -3.160  -1.091  1.00  0.00    -0.084 Cl
HETATM   25  C   LIG     1       3.262  -1.833   0.737  1.00  0.00     0.025 A 
HETATM   26  C   LIG     1       2.061  -1.345   1.253  1.00  0.00     0.020 A 
ENDBRANCH   3  19
TORSDOF 7
