REMARK  9 active torsions:
REMARK  status: ('A' for Active; 'I' for Inactive)
REMARK    1  A    between atoms: O_3  and  C_15 
REMARK    2  A    between atoms: O_3  and  C_24 
REMARK    3  A    between atoms: O_4  and  C_30 
REMARK    4  A    between atoms: O_4  and  C_32 
REMARK    5  A    between atoms: O_5  and  C_23 
REMARK    6  A    between atoms: N_11  and  C_22 
REMARK       I    between atoms: N_11  and  C_31 
REMARK    7  A    between atoms: N_12  and  C_28 
REMARK    8  A    between atoms: C_24  and  C_32 
REMARK    9  A    between atoms: C_30  and  C_31 
ROOT
HETATM    1  O   LIG     1       0.017   0.533   0.190  1.00  0.00    -0.310 OA
ENDROOT
BRANCH   1   2
HETATM    2  C   LIG     1       1.243   0.741   0.899  1.00  0.00     0.281 C 
BRANCH   2   3
HETATM    3  C   LIG     1       2.389   0.231   0.054  1.00  0.00     0.246 C 
HETATM    4  O   LIG     1       2.178  -0.262  -1.050  1.00  0.00    -0.271 OA
HETATM    5  N   LIG     1       3.611   0.411   0.689  1.00  0.00    -0.323 N 
HETATM    6  H   LIG     1       3.602   0.841   1.611  1.00  0.00     0.169 HD
BRANCH   5   7
HETATM    7  C   LIG     1       4.894   0.059   0.205  1.00  0.00     0.068 A 
HETATM    8  C   LIG     1       6.035   0.307   0.968  1.00  0.00     0.097 A 
HETATM    9  C   LIG     1       7.292  -0.046   0.478  1.00  0.00     0.075 A 
HETATM   10  C   LIG     1       7.409  -0.647  -0.774  1.00  0.00     0.105 A 
HETATM   11  C   LIG     1       6.268  -0.896  -1.538  1.00  0.00     0.038 A 
HETATM   12  C   LIG     1       5.010  -0.543  -1.048  1.00  0.00     0.035 A 
BRANCH   8  13
HETATM   13  O   LIG     1       5.942   0.895   2.195  1.00  0.00    -0.354 OA
HETATM   14  C   LIG     1       6.010   2.318   2.237  1.00  0.00     0.210 C 
ENDBRANCH   8  13
BRANCH  10  15
HETATM   15  N   LIG     1       8.688  -1.006  -1.275  1.00  0.00    -0.116 N 
HETATM   16  O   LIG     1       8.771  -1.545  -2.405  1.00  0.00    -0.532 OA
HETATM   17  O   LIG     1       9.702  -0.773  -0.573  1.00  0.00    -0.532 OA
ENDBRANCH  10  15
ENDBRANCH   5   7
ENDBRANCH   2   3
ENDBRANCH   1   2
BRANCH   1  18
HETATM   18  C   LIG     1      -1.113   0.948   0.834  1.00  0.00     0.283 C 
HETATM   19  O   LIG     1      -1.161   1.469   1.940  1.00  0.00    -0.263 OA
BRANCH  18  20
HETATM   20  C   LIG     1      -2.307   0.660  -0.037  1.00  0.00     0.286 C 
BRANCH  20  21
HETATM   21  O   LIG     1      -3.485   1.070   0.648  1.00  0.00    -0.337 OA
BRANCH  21  22
HETATM   22  C   LIG     1      -4.676   0.868   0.003  1.00  0.00     0.120 A 
HETATM   23  C   LIG     1      -5.348  -0.336   0.196  1.00  0.00     0.104 A 
HETATM   24  N   LIG     1      -4.826  -1.278   1.005  1.00  0.00    -0.250 NA
HETATM   25  C   LIG     1      -6.573  -0.528  -0.477  1.00  0.00     0.017 A 
HETATM   26  C   LIG     1      -5.511  -2.434   1.165  1.00  0.00     0.031 A 
HETATM   27  C   LIG     1      -6.715  -2.712   0.550  1.00  0.00     0.027 A 
HETATM   28  C   LIG     1      -4.898  -3.450   2.070  1.00  0.00     0.070 C 
HETATM   29  C   LIG     1      -7.249  -1.740  -0.283  1.00  0.00     0.017 A 
HETATM   30  C   LIG     1      -7.087   0.476  -1.314  1.00  0.00     0.048 A 
HETATM   31 CL   LIG     1      -8.585   0.317  -2.174  1.00  0.00    -0.083 Cl
HETATM   32  C   LIG     1      -6.395   1.671  -1.489  1.00  0.00     0.051 A 
HETATM   33  C   LIG     1      -5.188   1.867  -0.830  1.00  0.00     0.071 A 
HETATM   34 CL   LIG     1      -4.343   3.354  -1.059  1.00  0.00    -0.081 Cl
ENDBRANCH  21  22
ENDBRANCH  20  21
ENDBRANCH  18  20
ENDBRANCH   1  18
TORSDOF 9
