REMARK  10 active torsions:
REMARK  status: ('A' for Active; 'I' for Inactive)
REMARK    1  A    between atoms: O_1  and  C_15 
REMARK    2  A    between atoms: O_1  and  C_20 
REMARK    3  A    between atoms: N_3  and  C_11 
REMARK    4  A    between atoms: N_5  and  C_14 
REMARK       I    between atoms: N_5  and  C_21 
REMARK    5  A    between atoms: C_6  and  C_7 
REMARK    6  A    between atoms: C_6  and  C_8 
REMARK    7  A    between atoms: C_7  and  C_9 
REMARK    8  A    between atoms: C_9  and  C_12 
REMARK    9  A    between atoms: C_11  and  C_15 
REMARK   10  A    between atoms: C_12  and  C_14 
ROOT
HETATM    1  N   LIG     1      -1.348  -0.465  -0.242  1.00  0.00    -0.331 N 
HETATM    2  N   LIG     1      -0.221   0.238   1.540  1.00  0.00    -0.233 NA
HETATM    3  C   LIG     1      -0.518  -0.800   0.791  1.00  0.00     0.107 A 
HETATM    4  C   LIG     1      -1.605   0.879  -0.154  1.00  0.00     0.065 A 
HETATM    5  C   LIG     1      -0.890   1.295   0.966  1.00  0.00     0.085 A 
HETATM    6  C   LIG     1      -2.377   1.741  -0.934  1.00  0.00     0.032 A 
HETATM    7  C   LIG     1      -0.937   2.647   1.345  1.00  0.00     0.034 A 
HETATM    8  C   LIG     1      -2.412   3.083  -0.543  1.00  0.00     0.002 A 
HETATM    9  C   LIG     1      -1.706   3.530   0.576  1.00  0.00     0.002 A 
ENDROOT
BRANCH   3  10
HETATM   10  C   LIG     1      -0.030  -2.212   1.003  1.00  0.00     0.079 C 
BRANCH  10  11
HETATM   11  C   LIG     1       1.286  -2.512   0.276  1.00  0.00     0.008 C 
BRANCH  11  12
HETATM   12  C   LIG     1       2.460  -1.663   0.775  1.00  0.00     0.002 C 
BRANCH  12  13
HETATM   13  C   LIG     1       3.755  -2.022   0.038  1.00  0.00     0.020 C 
BRANCH  13  14
HETATM   14  C   LIG     1       4.957  -1.237   0.552  1.00  0.00     0.122 C 
BRANCH  14  15
HETATM   15  N   LIG     1       4.801   0.181   0.379  1.00  0.00    -0.361 N 
HETATM   16  C   LIG     1       5.211   0.864  -0.759  1.00  0.00     0.213 C 
HETATM   17  O   LIG     1       5.748   0.358  -1.741  1.00  0.00    -0.274 OA
HETATM   18  C   LIG     1       4.905   2.336  -0.691  1.00  0.00     0.117 C 
HETATM   19  H   LIG     1       4.355   0.701   1.129  1.00  0.00     0.162 HD
ENDBRANCH  14  15
ENDBRANCH  13  14
ENDBRANCH  12  13
ENDBRANCH  11  12
ENDBRANCH  10  11
ENDBRANCH   3  10
BRANCH   1  20
HETATM   20  C   LIG     1      -1.866  -1.363  -1.249  1.00  0.00     0.156 C 
BRANCH  20  21
HETATM   21  C   LIG     1      -3.193  -1.992  -0.844  1.00  0.00     0.187 C 
BRANCH  21  22
HETATM   22  O   LIG     1      -4.171  -0.975  -0.670  1.00  0.00    -0.390 OA
BRANCH  22  23
HETATM   23  C   LIG     1      -5.427  -1.520  -0.290  1.00  0.00     0.163 C 
HETATM   24  C   LIG     1      -6.423  -0.393  -0.121  1.00  0.00     0.033 C 
ENDBRANCH  22  23
ENDBRANCH  21  22
ENDBRANCH  20  21
ENDBRANCH   1  20
TORSDOF 10
