REMARK  13 active torsions:
REMARK  status: ('A' for Active; 'I' for Inactive)
REMARK    1  A    between atoms: O_1  and  C_12 
REMARK    2  A    between atoms: O_1  and  C_17 
REMARK    3  A    between atoms: N_5  and  C_18 
REMARK       I    between atoms: N_5  and  C_32 
REMARK    4  A    between atoms: C_6  and  C_11 
REMARK    5  A    between atoms: C_6  and  C_12 
REMARK    6  A    between atoms: C_9  and  C_14 
REMARK    7  A    between atoms: C_11  and  C_13 
REMARK    8  A    between atoms: C_13  and  C_15 
REMARK    9  A    between atoms: C_15  and  C_16 
REMARK   10  A    between atoms: C_16  and  C_18 
REMARK   11  A    between atoms: C_17  and  C_21 
REMARK   12  A    between atoms: C_17  and  C_22 
REMARK   13  A    between atoms: C_17  and  C_23 
ROOT
HETATM    1  C   LIG     1      -0.833   1.540   0.700  1.00  0.00    -0.018 C 
HETATM    2  C   LIG     1      -1.095   2.787  -0.159  1.00  0.00     0.024 C 
HETATM    3  C   LIG     1      -1.678   1.831   1.948  1.00  0.00     0.012 C 
HETATM    4  C   LIG     1      -2.573   3.146   0.088  1.00  0.00     0.056 C 
HETATM    5  C   LIG     1      -2.961   2.468   1.415  1.00  0.00     0.013 C 
ENDROOT
BRANCH   1   6
HETATM    6  C   LIG     1       0.650   1.399   1.050  1.00  0.00     0.012 C 
BRANCH   6   7
HETATM    7  C   LIG     1       1.499   1.146  -0.197  1.00  0.00     0.001 C 
BRANCH   7   8
HETATM    8  C   LIG     1       2.977   0.968   0.166  1.00  0.00     0.006 C 
BRANCH   8   9
HETATM    9  C   LIG     1       3.893   0.734  -1.059  1.00  0.00     0.004 C 
HETATM   10  C   LIG     1       3.816   1.902  -2.051  1.00  0.00     0.012 C 
BRANCH   9  11
HETATM   11  C   LIG     1       5.342   0.423  -0.597  1.00  0.00     0.084 C 
HETATM   12  C   LIG     1       6.262   0.011  -1.744  1.00  0.00     0.032 C 
BRANCH  11  13
HETATM   13  N   LIG     1       5.936   1.513   0.141  1.00  0.00    -0.357 N 
HETATM   14  C   LIG     1       6.849   1.326   1.165  1.00  0.00     0.213 C 
HETATM   15  O   LIG     1       7.264   0.244   1.572  1.00  0.00    -0.274 OA
HETATM   16  C   LIG     1       7.328   2.629   1.747  1.00  0.00     0.117 C 
HETATM   17  H   LIG     1       5.728   2.462  -0.155  1.00  0.00     0.162 HD
ENDBRANCH  11  13
ENDBRANCH   9  11
ENDBRANCH   8   9
ENDBRANCH   7   8
ENDBRANCH   6   7
ENDBRANCH   1   6
BRANCH   1  18
HETATM   18  C   LIG     1      -1.306   0.263  -0.013  1.00  0.00     0.179 C 
BRANCH  18  19
HETATM   19  O   LIG     1      -0.765  -0.848   0.671  1.00  0.00    -0.365 OA
BRANCH  19  20
HETATM   20  C   LIG     1      -1.155  -2.081   0.074  1.00  0.00     0.142 C 
BRANCH  20  21
HETATM   21  C   LIG     1      -2.575  -2.416   0.583  1.00  0.00    -0.015 A 
HETATM   22  C   LIG     1      -3.247  -3.534   0.089  1.00  0.00     0.011 A 
HETATM   23  C   LIG     1      -4.529  -3.837   0.549  1.00  0.00     0.001 A 
HETATM   24  C   LIG     1      -5.138  -3.022   1.502  1.00  0.00     0.000 A 
HETATM   25  C   LIG     1      -4.466  -1.903   1.996  1.00  0.00     0.001 A 
HETATM   26  C   LIG     1      -3.185  -1.601   1.536  1.00  0.00     0.011 A 
ENDBRANCH  20  21
BRANCH  20  27
HETATM   27  C   LIG     1      -1.089  -1.829  -1.448  1.00  0.00    -0.015 A 
HETATM   28  C   LIG     1       0.127  -1.944  -2.122  1.00  0.00     0.011 A 
HETATM   29  C   LIG     1       0.186  -1.716  -3.497  1.00  0.00     0.001 A 
HETATM   30  C   LIG     1      -0.970  -1.375  -4.198  1.00  0.00     0.000 A 
HETATM   31  C   LIG     1      -2.186  -1.261  -3.524  1.00  0.00     0.001 A 
HETATM   32  C   LIG     1      -2.246  -1.488  -2.149  1.00  0.00     0.011 A 
ENDBRANCH  20  27
BRANCH  20  33
HETATM   33  C   LIG     1      -0.095  -3.103   0.542  1.00  0.00    -0.015 A 
HETATM   34  C   LIG     1      -0.100  -4.399   0.027  1.00  0.00     0.011 A 
HETATM   35  C   LIG     1       0.857  -5.321   0.449  1.00  0.00     0.001 A 
HETATM   36  C   LIG     1       1.820  -4.948   1.387  1.00  0.00     0.000 A 
HETATM   37  C   LIG     1       1.825  -3.651   1.902  1.00  0.00     0.001 A 
HETATM   38  C   LIG     1       0.868  -2.729   1.480  1.00  0.00     0.011 A 
ENDBRANCH  20  33
ENDBRANCH  19  20
ENDBRANCH  18  19
ENDBRANCH   1  18
BRANCH   4  39
HETATM   39  C   LIG     1      -2.824   4.641   0.072  1.00  0.00     0.107 A 
HETATM   40  N   LIG     1      -3.678   5.210  -0.831  1.00  0.00    -0.353 N 
HETATM   41  C   LIG     1      -3.690   6.555  -0.593  1.00  0.00     0.109 A 
HETATM   42  H   LIG     1      -4.206   4.726  -1.546  1.00  0.00     0.166 HD
HETATM   43  C   LIG     1      -2.826   6.733   0.461  1.00  0.00     0.135 A 
HETATM   44  N   LIG     1      -2.289   5.538   0.870  1.00  0.00    -0.246 NA
ENDBRANCH   4  39
TORSDOF 13
