REMARK  13 active torsions:
REMARK  status: ('A' for Active; 'I' for Inactive)
REMARK    1  A    between atoms: O_1  and  C_8 
REMARK    2  A    between atoms: O_1  and  C_10 
REMARK    3  A    between atoms: O_2  and  C_11 
REMARK    4  A    between atoms: O_3  and  C_23 
REMARK    5  A    between atoms: N_4  and  C_14 
REMARK    6  A    between atoms: N_4  and  C_15 
REMARK    7  A    between atoms: C_5  and  C_8 
REMARK    8  A    between atoms: C_8  and  C_9 
REMARK    9  A    between atoms: C_10  and  C_11 
REMARK   10  A    between atoms: C_11  and  C_15 
REMARK   11  A    between atoms: C_14  and  C_18 
REMARK   12  A    between atoms: C_18  and  C_22 
REMARK   13  A    between atoms: C_19  and  C_23 
ROOT
HETATM    1  C   LIG     1      -2.470   2.837   1.520  1.00  0.00     0.170 C 
ENDROOT
BRANCH   1   2
HETATM    2  O   LIG     1      -2.740   4.090   0.885  1.00  0.00    -0.392 OA
HETATM    3  H   LIG     1      -2.225   4.772   1.350  1.00  0.00     0.210 HD
ENDBRANCH   1   2
BRANCH   1   4
HETATM    4  C   LIG     1      -3.338   1.764   0.868  1.00  0.00     0.202 C 
BRANCH   4   5
HETATM    5  O   LIG     1      -3.037   1.711  -0.523  1.00  0.00    -0.378 OA
BRANCH   5   6
HETATM    6  C   LIG     1      -3.805   0.716  -1.183  1.00  0.00     0.158 C 
BRANCH   6   7
HETATM    7  C   LIG     1      -3.507   0.730  -2.654  1.00  0.00     0.019 A 
HETATM    8  C   LIG     1      -4.556   0.252  -3.602  1.00  0.00     0.008 A 
HETATM    9  C   LIG     1      -4.222   1.712  -3.520  1.00  0.00     0.008 A 
ENDBRANCH   6   7
BRANCH   6  10
HETATM   10  C   LIG     1      -3.512  -0.640  -0.581  1.00  0.00    -0.029 A 
HETATM   11  C   LIG     1      -4.530  -1.335   0.049  1.00  0.00     0.010 A 
HETATM   12  C   LIG     1      -4.260  -2.586   0.605  1.00  0.00     0.010 A 
HETATM   13  C   LIG     1      -2.975  -3.122   0.522  1.00  0.00    -0.035 A 
HETATM   14  C   LIG     1      -1.961  -2.409  -0.116  1.00  0.00     0.010 A 
HETATM   15  C   LIG     1      -2.231  -1.158  -0.672  1.00  0.00     0.010 A 
BRANCH  13  16
HETATM   16  C   LIG     1      -2.685  -4.459   1.117  1.00  0.00     0.202 C 
BRANCH  16  17
HETATM   17  O   LIG     1      -2.274  -4.295   2.469  1.00  0.00    -0.396 OA
HETATM   18  H   LIG     1      -2.095  -5.184   2.822  1.00  0.00     0.209 HD
ENDBRANCH  16  17
ENDBRANCH  13  16
ENDBRANCH   6  10
ENDBRANCH   5   6
ENDBRANCH   4   5
ENDBRANCH   1   4
BRANCH   1  19
HETATM   19  C   LIG     1      -0.970   2.556   1.404  1.00  0.00     0.304 C 
BRANCH  19  20
HETATM   20  N   LIG     1      -0.607   1.280   1.991  1.00  0.00     0.095 N 
HETATM   21  H   LIG     1      -0.888   1.257   2.971  1.00  0.00     0.317 HD
BRANCH  20  22
HETATM   22  C   LIG     1       0.844   1.055   1.871  1.00  0.00     0.154 C 
HETATM   23  C   LIG     1       1.145  -0.312   2.501  1.00  0.00     0.049 C 
HETATM   24  C   LIG     1       1.542   2.162   2.673  1.00  0.00     0.049 C 
BRANCH  22  25
HETATM   25  C   LIG     1       1.226   1.099   0.359  1.00  0.00     0.079 C 
BRANCH  25  26
HETATM   26  C   LIG     1       2.656   0.848   0.015  1.00  0.00    -0.055 A 
HETATM   27  C   LIG     1       3.095  -0.452  -0.238  1.00  0.00     0.019 A 
HETATM   28  C   LIG     1       4.437  -0.705  -0.564  1.00  0.00    -0.025 A 
HETATM   29  C   LIG     1       5.348   0.376  -0.633  1.00  0.00    -0.026 A 
HETATM   30  C   LIG     1       4.896  -2.007  -0.822  1.00  0.00     0.012 A 
HETATM   31  C   LIG     1       4.889   1.678  -0.376  1.00  0.00     0.013 A 
HETATM   32  C   LIG     1       6.691   0.123  -0.959  1.00  0.00     0.012 A 
HETATM   33  C   LIG     1       3.552   1.911  -0.054  1.00  0.00     0.008 A 
HETATM   34  C   LIG     1       7.129  -1.177  -1.211  1.00  0.00     0.001 A 
HETATM   35  C   LIG     1       6.233  -2.240  -1.143  1.00  0.00     0.001 A 
ENDBRANCH  25  26
ENDBRANCH  22  25
ENDBRANCH  20  22
ENDBRANCH  19  20
ENDBRANCH   1  19
TORSDOF 13
