REMARK  6 active torsions:
REMARK  status: ('A' for Active; 'I' for Inactive)
REMARK    1  A    between atoms: C_5  and  O_10 
REMARK    2  A    between atoms: O_10  and  P_11 
REMARK    3  A    between atoms: P_11  and  O_16 
REMARK    4  A    between atoms: P_11  and  O_13 
REMARK    5  A    between atoms: O_13  and  C_14 
REMARK    6  A    between atoms: O_16  and  C_17 
ROOT
HETATM    1 CL   LIG     1      -0.917   3.246   0.834  1.00  0.00    -0.079 Cl
HETATM    2 CL   LIG     1      -5.103  -0.050   0.127  1.00  0.00    -0.080 Cl
HETATM    3 CL   LIG     1      -2.965  -2.337  -0.795  1.00  0.00    -0.060 Cl
HETATM    4  N   LIG     1      -1.159  -0.557  -0.375  1.00  0.00    -0.209 NA
HETATM    5  C   LIG     1      -0.712   0.668  -0.018  1.00  0.00     0.197 A 
HETATM    6  C   LIG     1      -1.538   1.706   0.388  1.00  0.00     0.100 A 
HETATM    7  C   LIG     1      -2.907   1.470   0.429  1.00  0.00     0.029 A 
HETATM    8  C   LIG     1      -3.404   0.223   0.069  1.00  0.00     0.087 A 
HETATM    9  C   LIG     1      -2.497  -0.748  -0.323  1.00  0.00     0.151 A 
ENDROOT
BRANCH   5  10
HETATM   10  O   LIG     1       0.644   0.851  -0.075  1.00  0.00    -0.250 OA
BRANCH  10  11
HETATM   11  P   LIG     1       1.746  -0.250  -0.524  1.00  0.00     0.337 P 
HETATM   12  S   LIG     1       1.718  -0.818  -2.390  1.00  0.00    -0.007 SA
BRANCH  11  13
HETATM   13  O   LIG     1       3.127   0.405   0.035  1.00  0.00    -0.295 OA
BRANCH  13  14
HETATM   14  C   LIG     1       3.541   1.679  -0.428  1.00  0.00     0.152 C 
HETATM   15  C   LIG     1       4.845   2.048   0.246  1.00  0.00     0.035 C 
ENDBRANCH  13  14
ENDBRANCH  11  13
BRANCH  11  16
HETATM   16  O   LIG     1       1.489  -1.419   0.579  1.00  0.00    -0.295 OA
BRANCH  16  17
HETATM   17  C   LIG     1       2.267  -2.603   0.547  1.00  0.00     0.152 C 
HETATM   18  C   LIG     1       1.826  -3.514   1.674  1.00  0.00     0.035 C 
ENDBRANCH  16  17
ENDBRANCH  11  16
ENDBRANCH  10  11
ENDBRANCH   5  10
TORSDOF 6
