REMARK  1 active torsions:
REMARK  status: ('A' for Active; 'I' for Inactive)
REMARK    1  A    between atoms: C_7  and  C_10 
ROOT
HETATM    1 CL   LIG     1       0.300  -4.444   0.812  1.00  0.00    -0.084 Cl
HETATM    2  O   LIG     1       2.429   3.308  -0.148  1.00  0.00    -0.271 OA
HETATM    3  N   LIG     1       2.341   1.015  -0.554  1.00  0.00    -0.320 N 
HETATM    4  N   LIG     1      -0.128   1.795   1.032  1.00  0.00    -0.279 NA
HETATM    5  C   LIG     1       0.520  -0.467   0.316  1.00  0.00     0.022 A 
HETATM    6  C   LIG     1       1.801  -0.280  -0.245  1.00  0.00     0.049 A 
HETATM    7  C   LIG     1      -0.443   0.657   0.513  1.00  0.00     0.074 C 
HETATM    8  C   LIG     1       1.249   1.994   1.433  1.00  0.00     0.252 C 
HETATM    9  C   LIG     1       2.045   2.179   0.166  1.00  0.00     0.243 C 
HETATM   10  C   LIG     1       0.071  -1.756   0.656  1.00  0.00     0.040 A 
HETATM   11  C   LIG     1       2.565  -1.432  -0.521  1.00  0.00     0.032 A 
HETATM   12  C   LIG     1       3.309   1.114  -1.647  1.00  0.00     0.159 C 
HETATM   13  C   LIG     1       0.863  -2.872   0.401  1.00  0.00     0.035 A 
HETATM   14  C   LIG     1       2.104  -2.711  -0.199  1.00  0.00     0.026 A 
ENDROOT
BRANCH   7  15
HETATM   15  C   LIG     1      -1.857   0.481   0.073  1.00  0.00    -0.007 A 
HETATM   16  C   LIG     1      -2.143  -0.351  -1.003  1.00  0.00     0.014 A 
HETATM   17  C   LIG     1      -3.466  -0.516  -1.414  1.00  0.00     0.001 A 
HETATM   18  C   LIG     1      -4.492   0.151  -0.746  1.00  0.00     0.000 A 
HETATM   19  C   LIG     1      -4.196   0.985   0.333  1.00  0.00     0.001 A 
HETATM   20  C   LIG     1      -2.873   1.150   0.744  1.00  0.00     0.014 A 
ENDBRANCH   7  15
TORSDOF 1
