REMARK  3 active torsions:
REMARK  status: ('A' for Active; 'I' for Inactive)
REMARK    1  A    between atoms: C_4  and  O_11 
REMARK    2  A    between atoms: O_11  and  C_12 
REMARK    3  A    between atoms: C_12  and  C_13 
ROOT
HETATM    1  N   LIG     1       3.662   1.665  -0.003  1.00  0.00    -0.244 NA
HETATM    2  C   LIG     1       3.179  -0.695  -0.003  1.00  0.00     0.018 A 
HETATM    3  C   LIG     1       2.772   0.655   0.002  1.00  0.00     0.083 A 
HETATM    4  C   LIG     1       0.456  -0.095   0.016  1.00  0.00     0.096 A 
HETATM    5  C   LIG     1       1.407   0.928   0.011  1.00  0.00     0.043 A 
HETATM    6  C   LIG     1       2.222  -1.725   0.003  1.00  0.00     0.004 A 
HETATM    7  C   LIG     1       0.864  -1.423   0.012  1.00  0.00     0.024 A 
HETATM    8  C   LIG     1       4.553  -0.971  -0.012  1.00  0.00     0.003 A 
HETATM    9  C   LIG     1       5.473   0.068  -0.017  1.00  0.00     0.021 A 
HETATM   10  C   LIG     1       4.979   1.357  -0.012  1.00  0.00     0.099 A 
ENDROOT
BRANCH   4  11
HETATM   11  O   LIG     1      -0.871   0.210   0.026  1.00  0.00    -0.326 OA
BRANCH  11  12
HETATM   12  C   LIG     1      -1.788  -0.882   0.032  1.00  0.00     0.175 C 
BRANCH  12  13
HETATM   13  C   LIG     1      -3.189  -0.345   0.011  1.00  0.00     0.008 A 
HETATM   14  C   LIG     1      -3.820  -0.116  -1.207  1.00  0.00    -0.002 A 
HETATM   15  C   LIG     1      -5.123   0.384  -1.226  1.00  0.00    -0.000 A 
HETATM   16  C   LIG     1      -5.785   0.650  -0.028  1.00  0.00    -0.000 A 
HETATM   17  C   LIG     1      -5.146   0.417   1.189  1.00  0.00    -0.000 A 
HETATM   18  C   LIG     1      -3.844  -0.082   1.209  1.00  0.00    -0.002 A 
ENDBRANCH  12  13
ENDBRANCH  11  12
ENDBRANCH   4  11
TORSDOF 3
