REMARK  1 active torsions:
REMARK  status: ('A' for Active; 'I' for Inactive)
REMARK    1  A    between atoms: C_10  and  C_15 
ROOT
HETATM    1 CL   LIG     1      -0.581  -4.592   0.924  1.00  0.00    -0.084 Cl
HETATM    2  N   LIG     1       2.244   0.530  -0.084  1.00  0.00    -0.300 N 
HETATM    3  N   LIG     1      -0.374   1.706   0.963  1.00  0.00    -0.282 NA
HETATM    4  N   LIG     1       3.809   1.971  -0.781  1.00  0.00    -0.245 NA
HETATM    5  C   LIG     1       1.516  -0.671   0.087  1.00  0.00     0.053 A 
HETATM    6  C   LIG     1       1.996   1.729   0.552  1.00  0.00     0.056 A 
HETATM    7  C   LIG     1       0.159  -0.671   0.468  1.00  0.00     0.022 A 
HETATM    8  C   LIG     1       0.931   1.892   1.568  1.00  0.00     0.208 C 
HETATM    9  C   LIG     1      -0.704   0.557   0.478  1.00  0.00     0.077 C 
HETATM   10  C   LIG     1       3.376   0.732  -0.843  1.00  0.00     0.107 A 
HETATM   11  C   LIG     1       2.956   2.597   0.084  1.00  0.00     0.145 A 
HETATM   12  C   LIG     1       2.186  -1.892  -0.096  1.00  0.00     0.032 A 
HETATM   13  C   LIG     1      -0.472  -1.897   0.742  1.00  0.00     0.040 A 
HETATM   14  C   LIG     1       3.961  -0.247  -1.789  1.00  0.00     0.091 C 
HETATM   15  C   LIG     1       1.534  -3.100   0.156  1.00  0.00     0.026 A 
HETATM   16  C   LIG     1       0.213  -3.102   0.589  1.00  0.00     0.035 A 
ENDROOT
BRANCH   9  17
HETATM   17  C   LIG     1      -2.057   0.472  -0.147  1.00  0.00     0.032 A 
HETATM   18  C   LIG     1      -3.089   1.265   0.336  1.00  0.00     0.129 A 
HETATM   19  F   LIG     1      -2.890   2.109   1.359  1.00  0.00    -0.205 F 
HETATM   20  C   LIG     1      -4.351   1.184  -0.251  1.00  0.00     0.043 A 
HETATM   21  C   LIG     1      -4.571   0.311  -1.316  1.00  0.00     0.003 A 
HETATM   22  C   LIG     1      -3.527  -0.482  -1.794  1.00  0.00     0.001 A 
HETATM   23  C   LIG     1      -2.265  -0.401  -1.207  1.00  0.00     0.017 A 
ENDBRANCH   9  17
TORSDOF 1
