REMARK  6 active torsions:
REMARK  status: ('A' for Active; 'I' for Inactive)
REMARK    1  A    between atoms: O_1  and  C_17 
REMARK    2  A    between atoms: O_2  and  C_18 
REMARK    3  A    between atoms: N_8  and  C_15 
REMARK    4  A    between atoms: C_9  and  C_12 
REMARK    5  A    between atoms: C_10  and  C_17 
REMARK    6  A    between atoms: C_11  and  C_18 
ROOT
HETATM    1  N   LIG     1       1.688  -2.391   0.855  1.00  0.00    -0.362 N 
HETATM    2  C   LIG     1       0.349  -0.194  -0.325  1.00  0.00     0.103 C 
HETATM    3  C   LIG     1       1.850  -0.194  -0.010  1.00  0.00     0.052 C 
HETATM    4  C   LIG     1      -0.311  -1.557  -0.095  1.00  0.00     0.052 C 
HETATM    5  C   LIG     1       2.442  -1.263   0.570  1.00  0.00     0.018 C 
HETATM    6  C   LIG     1       0.361  -2.568   0.498  1.00  0.00     0.018 C 
HETATM    7  C   LIG     1       3.893  -1.355   0.959  1.00  0.00     0.069 C 
HETATM    8  C   LIG     1      -0.207  -3.925   0.818  1.00  0.00     0.069 C 
HETATM    9  H   LIG     1       2.162  -3.171   1.296  1.00  0.00     0.165 HD
ENDROOT
BRANCH   2  10
HETATM   10  C   LIG     1      -0.346   0.857   0.493  1.00  0.00    -0.012 A 
HETATM   11  C   LIG     1      -1.457   1.533   0.000  1.00  0.00     0.110 A 
HETATM   12  C   LIG     1      -2.081   2.504   0.784  1.00  0.00     0.037 A 
HETATM   13  C   LIG     1      -1.590   2.793   2.058  1.00  0.00     0.002 A 
HETATM   14  C   LIG     1      -0.475   2.112   2.547  1.00  0.00     0.001 A 
HETATM   15  C   LIG     1       0.148   1.141   1.763  1.00  0.00     0.011 A 
BRANCH  11  16
HETATM   16  N   LIG     1      -1.974   1.256  -1.295  1.00  0.00    -0.115 N 
HETATM   17  O   LIG     1      -2.977   1.893  -1.697  1.00  0.00    -0.532 OA
HETATM   18  O   LIG     1      -1.411   0.383  -1.998  1.00  0.00    -0.532 OA
ENDBRANCH  11  16
ENDBRANCH   2  10
BRANCH   3  19
HETATM   19  C   LIG     1       2.610   0.996  -0.425  1.00  0.00     0.291 C 
HETATM   20  O   LIG     1       2.807   1.952   0.302  1.00  0.00    -0.260 OA
BRANCH  19  21
HETATM   21  O   LIG     1       3.019   0.817  -1.704  1.00  0.00    -0.323 OA
HETATM   22  C   LIG     1       3.778   1.899  -2.256  1.00  0.00     0.213 C 
ENDBRANCH  19  21
ENDBRANCH   3  19
BRANCH   4  23
HETATM   23  C   LIG     1      -1.687  -1.715  -0.594  1.00  0.00     0.291 C 
HETATM   24  O   LIG     1      -1.951  -2.078  -1.725  1.00  0.00    -0.260 OA
BRANCH  23  25
HETATM   25  O   LIG     1      -2.544  -1.395   0.406  1.00  0.00    -0.323 OA
HETATM   26  C   LIG     1      -3.932  -1.502   0.073  1.00  0.00     0.213 C 
ENDBRANCH  23  25
ENDBRANCH   4  23
TORSDOF 6
