REMARK  4 active torsions:
REMARK  status: ('A' for Active; 'I' for Inactive)
REMARK    1  A    between atoms: C_4  and  C_6 
REMARK    2  A    between atoms: C_5  and  C_14 
REMARK    3  A    between atoms: C_7  and  N_16 
REMARK    4  A    between atoms: C_10  and  N_19 
ROOT
HETATM    1  N   LIG     1      -2.721  -0.947   0.297  1.00  0.00    -0.066 NA
HETATM    2  N   LIG     1      -2.700   1.413  -0.191  1.00  0.00    -0.045 NA
HETATM    3  C   LIG     1      -0.625   0.213   0.045  1.00  0.00     0.048 A 
HETATM    4  C   LIG     1      -1.372  -0.924   0.284  1.00  0.00     0.080 A 
HETATM    5  C   LIG     1      -1.351   1.364  -0.189  1.00  0.00     0.153 A 
HETATM    6  C   LIG     1      -3.312   0.239   0.056  1.00  0.00     0.722 A 
ENDROOT
BRANCH   3   7
HETATM    7  C   LIG     1       0.822   0.188   0.041  1.00  0.00     0.004 A 
HETATM    8  C   LIG     1       1.512  -0.069  -1.143  1.00  0.00     0.001 A 
HETATM    9  C   LIG     1       2.906  -0.094  -1.147  1.00  0.00     0.011 A 
HETATM   10  C   LIG     1       3.611   0.138   0.035  1.00  0.00     0.058 A 
HETATM   11 CL   LIG     1       5.331   0.105   0.031  1.00  0.00    -0.082 Cl
HETATM   12  C   LIG     1       2.921   0.394   1.219  1.00  0.00     0.011 A 
HETATM   13  C   LIG     1       1.526   0.419   1.223  1.00  0.00     0.001 A 
ENDBRANCH   3   7
BRANCH   5  14
HETATM   14  N   LIG     1      -0.653   2.571  -0.443  1.00  0.00    -0.383 N 
HETATM   15  H   LIG     1      -1.222   3.390  -0.619  1.00  0.00     0.157 HD
HETATM   16  H   LIG     1       0.247   2.717  -0.004  1.00  0.00     0.157 HD
ENDBRANCH   5  14
BRANCH   4  17
HETATM   17  C   LIG     1      -0.709  -2.237   0.552  1.00  0.00     0.047 C 
HETATM   18  C   LIG     1      -0.463  -3.028  -0.730  1.00  0.00     0.007 C 
ENDBRANCH   4  17
BRANCH   6  19
HETATM   19  N   LIG     1      -4.723   0.253   0.061  1.00  0.00    -0.231 N 
HETATM   20  H   LIG     1      -5.213   1.120  -0.115  1.00  0.00     0.174 HD
HETATM   21  H   LIG     1      -5.228  -0.604   0.241  1.00  0.00     0.174 HD
ENDBRANCH   6  19
TORSDOF 4
