REMARK  4 active torsions:
REMARK  status: ('A' for Active; 'I' for Inactive)
REMARK    1  A    between atoms: O_1  and  C_7 
REMARK    2  A    between atoms: N_3  and  C_29 
REMARK    3  A    between atoms: C_7  and  C_19 
REMARK    4  A    between atoms: C_11  and  C_17 
ROOT
HETATM    1  C   LIG     1       3.389   2.693  -0.935  1.00  0.00    -0.068 C 
HETATM    2  C   LIG     1       4.140   2.445  -1.839  1.00  0.00    -0.108 C 
HETATM    3  C   LIG     1       5.054   2.143  -2.939  1.00  0.00     0.112 C 
ENDROOT
BRANCH   1   4
HETATM    4  C   LIG     1       2.466   2.999   0.177  1.00  0.00     0.128 C 
HETATM    5  C   LIG     1       1.313   1.953   0.339  1.00  0.00     0.004 C 
HETATM    6  C   LIG     1       2.077   0.802   1.023  1.00  0.00     0.006 C 
HETATM    7  C   LIG     1       0.702   1.397  -0.961  1.00  0.00     0.027 C 
HETATM    8  C   LIG     1       0.185   2.564   1.213  1.00  0.00     0.020 C 
HETATM    9  C   LIG     1       1.175  -0.369   1.426  1.00  0.00     0.021 C 
HETATM   10  C   LIG     1       2.880   1.508   2.116  1.00  0.00     0.010 C 
HETATM   11  C   LIG     1       0.450  -0.930   0.184  1.00  0.00    -0.060 C 
HETATM   12  C   LIG     1       1.992  -1.427   2.189  1.00  0.00     0.014 C 
HETATM   13  C   LIG     1      -0.164   0.111  -0.776  1.00  0.00     0.049 C 
HETATM   14  C   LIG     1       0.349  -2.270  -0.024  1.00  0.00    -0.048 C 
HETATM   15  C   LIG     1       0.905  -3.241   0.928  1.00  0.00    -0.048 C 
HETATM   16  C   LIG     1      -0.390  -2.932  -1.170  1.00  0.00     0.047 C 
HETATM   17  C   LIG     1       1.214  -2.727   2.307  1.00  0.00     0.040 C 
HETATM   18  C   LIG     1       1.143  -4.525   0.609  1.00  0.00     0.057 C 
HETATM   19  C   LIG     1       0.909  -5.024  -0.769  1.00  0.00     0.150 C 
HETATM   20  O   LIG     1       1.148  -6.197  -1.047  1.00  0.00    -0.293 OA
HETATM   21  C   LIG     1       0.444  -4.034  -1.810  1.00  0.00     0.087 C 
HETATM   22  C   LIG     1       3.229   2.889   1.525  1.00  0.00     0.052 C 
BRANCH   4  23
HETATM   23  O   LIG     1       1.982   4.317  -0.034  1.00  0.00    -0.377 OA
HETATM   24  H   LIG     1       2.726   4.934   0.076  1.00  0.00     0.211 HD
ENDBRANCH   4  23
BRANCH  13  25
HETATM   25  C   LIG     1      -1.650   0.402  -0.554  1.00  0.00    -0.050 A 
HETATM   26  C   LIG     1      -2.465   0.708  -1.639  1.00  0.00     0.010 A 
HETATM   27  C   LIG     1      -3.819   0.973  -1.437  1.00  0.00     0.030 A 
HETATM   28  C   LIG     1      -4.353   0.930  -0.148  1.00  0.00     0.029 A 
HETATM   29  C   LIG     1      -3.532   0.623   0.937  1.00  0.00     0.030 A 
HETATM   30  C   LIG     1      -2.177   0.359   0.734  1.00  0.00     0.010 A 
BRANCH  28  31
HETATM   31  N   LIG     1      -5.722   1.197   0.057  1.00  0.00    -0.390 N 
HETATM   32  C   LIG     1      -6.434   2.100  -0.826  1.00  0.00     0.149 C 
HETATM   33  C   LIG     1      -6.439   0.562   1.145  1.00  0.00     0.149 C 
ENDBRANCH  28  31
ENDBRANCH  13  25
ENDBRANCH   1   4
TORSDOF 4
