REMARK  3 active torsions:
REMARK  status: ('A' for Active; 'I' for Inactive)
REMARK    1  A    between atoms: C_5  and  C_15 
REMARK    2  A    between atoms: C_15  and  C_16 
REMARK    3  A    between atoms: C_16  and  C_17 
ROOT
HETATM    1  O   LIG     1       0.431  -2.078   0.715  1.00  0.00    -0.287 OA
HETATM    2  O   LIG     1       2.589  -2.105   1.323  1.00  0.00    -0.238 OA
HETATM    3  N   LIG     1       1.762  -0.136   0.393  1.00  0.00    -0.300 N 
HETATM    4  C   LIG     1       0.638   0.581  -0.278  1.00  0.00     0.071 C 
HETATM    5  C   LIG     1      -0.685   0.037   0.321  1.00  0.00     0.047 C 
HETATM    6  C   LIG     1      -0.698  -1.463   0.049  1.00  0.00     0.128 C 
HETATM    7  C   LIG     1       0.694   0.308  -1.807  1.00  0.00     0.021 C 
HETATM    8  C   LIG     1       0.725   2.107  -0.004  1.00  0.00     0.021 C 
HETATM    9  C   LIG     1      -0.657  -1.816  -1.441  1.00  0.00     0.030 C 
HETATM   10  C   LIG     1       0.517  -1.168  -2.169  1.00  0.00     0.004 C 
HETATM   11  C   LIG     1       2.117   2.693  -0.207  1.00  0.00     0.004 C 
HETATM   12  C   LIG     1       3.102   0.456   0.319  1.00  0.00     0.106 C 
HETATM   13  C   LIG     1       3.120   1.939   0.650  1.00  0.00     0.024 C 
HETATM   14  C   LIG     1       1.654  -1.468   0.836  1.00  0.00     0.365 C 
ENDROOT
BRANCH   5  15
HETATM   15  C   LIG     1      -1.967   0.718  -0.168  1.00  0.00     0.004 C 
BRANCH  15  16
HETATM   16  C   LIG     1      -3.190   0.167   0.555  1.00  0.00     0.000 C 
BRANCH  16  17
HETATM   17  C   LIG     1      -4.464   0.871   0.087  1.00  0.00     0.000 C 
HETATM   18  C   LIG     1      -5.689   0.355   0.825  1.00  0.00     0.000 C 
ENDBRANCH  16  17
ENDBRANCH  15  16
ENDBRANCH   5  15
TORSDOF 3
