REMARK  1 active torsions:
REMARK  status: ('A' for Active; 'I' for Inactive)
REMARK    1  A    between atoms: C_7  and  C_21 
ROOT
HETATM    1  O   LIG     1      -6.087  -0.251   1.000  1.00  0.00    -0.291 OA
HETATM    2  C   LIG     1       1.434   0.951   0.384  1.00  0.00     0.000 C 
HETATM    3  C   LIG     1       2.308  -0.244  -0.054  1.00  0.00     0.006 C 
HETATM    4  C   LIG     1       0.047   0.946  -0.267  1.00  0.00     0.001 C 
HETATM    5  C   LIG     1      -0.691  -0.371   0.130  1.00  0.00     0.004 C 
HETATM    6  C   LIG     1      -2.152  -0.456  -0.458  1.00  0.00     0.016 C 
HETATM    7  C   LIG     1       3.603   0.099   0.715  1.00  0.00     0.058 C 
HETATM    8  C   LIG     1       1.607  -1.529   0.407  1.00  0.00     0.000 C 
HETATM    9  C   LIG     1       0.177  -1.628  -0.154  1.00  0.00     0.000 C 
HETATM   10  C   LIG     1       2.348   2.153   0.172  1.00  0.00     0.000 C 
HETATM   11  C   LIG     1      -0.780   2.163   0.167  1.00  0.00     0.004 C 
HETATM   12  C   LIG     1       3.741   1.628   0.565  1.00  0.00     0.007 C 
HETATM   13  C   LIG     1      -2.901   0.849  -0.158  1.00  0.00    -0.042 C 
HETATM   14  C   LIG     1       2.567  -0.307  -1.582  1.00  0.00     0.000 C 
HETATM   15  C   LIG     1      -2.169   2.136  -0.457  1.00  0.00     0.022 C 
HETATM   16  C   LIG     1      -2.881  -1.655   0.215  1.00  0.00     0.012 C 
HETATM   17  C   LIG     1      -2.147  -0.668  -1.989  1.00  0.00     0.004 C 
HETATM   18  C   LIG     1      -4.390  -1.633   0.030  1.00  0.00     0.070 C 
HETATM   19  C   LIG     1      -4.155   0.901   0.324  1.00  0.00     0.029 C 
HETATM   20  C   LIG     1      -4.959  -0.327   0.518  1.00  0.00     0.172 C 
ENDROOT
BRANCH   7  21
HETATM   21  C   LIG     1       4.819  -0.633   0.237  1.00  0.00     0.151 C 
HETATM   22  O   LIG     1       5.519  -0.194  -0.674  1.00  0.00    -0.296 OA
HETATM   23  C   LIG     1       5.142  -1.930   0.927  1.00  0.00     0.072 C 
ENDBRANCH   7  21
TORSDOF 1
