REMARK  1 active torsions:
REMARK  status: ('A' for Active; 'I' for Inactive)
REMARK    1  A    between atoms: O_1  and  C_10 
ROOT
HETATM    1  O   LIG     1       5.593  -0.143   0.967  1.00  0.00    -0.293 OA
HETATM    2  C   LIG     1      -1.999  -0.736   0.356  1.00  0.00     0.001 C 
HETATM    3  C   LIG     1      -2.781   0.550   0.027  1.00  0.00    -0.014 C 
HETATM    4  C   LIG     1      -0.621  -0.777  -0.313  1.00  0.00    -0.004 C 
HETATM    5  C   LIG     1       0.214   0.446   0.182  1.00  0.00     0.002 C 
HETATM    6  C   LIG     1       1.673   0.472  -0.417  1.00  0.00    -0.016 C 
HETATM    7  C   LIG     1      -1.990   1.742   0.581  1.00  0.00     0.012 C 
HETATM    8  C   LIG     1      -0.560   1.783   0.014  1.00  0.00     0.007 C 
HETATM    9  C   LIG     1      -4.093   0.244   0.774  1.00  0.00     0.126 C 
HETATM   10  C   LIG     1      -3.002  -1.848   0.063  1.00  0.00     0.008 C 
HETATM   11  C   LIG     1       0.117  -2.083   0.007  1.00  0.00     0.010 C 
HETATM   12  C   LIG     1      -4.359  -1.244   0.468  1.00  0.00     0.033 C 
HETATM   13  C   LIG     1       2.327  -0.904  -0.237  1.00  0.00    -0.068 C 
HETATM   14  C   LIG     1       1.499  -2.105  -0.632  1.00  0.00     0.035 C 
HETATM   15  C   LIG     1      -3.059   0.769  -1.482  1.00  0.00     0.018 C 
HETATM   16  C   LIG     1       2.494   1.554   0.343  1.00  0.00     0.022 C 
HETATM   17  C   LIG     1       1.673   0.812  -1.925  1.00  0.00     0.020 C 
HETATM   18  C   LIG     1       3.996   1.437   0.137  1.00  0.00     0.084 C 
HETATM   19  C   LIG     1       3.576  -1.089   0.221  1.00  0.00     0.053 C 
HETATM   20  C   LIG     1       4.470   0.057   0.507  1.00  0.00     0.149 C 
ENDROOT
BRANCH   9  21
HETATM   21  O   LIG     1      -5.169   1.064   0.361  1.00  0.00    -0.395 OA
HETATM   22  H   LIG     1      -5.448   0.793  -0.529  1.00  0.00     0.210 HD
ENDBRANCH   9  21
TORSDOF 1
