REMARK  4 active torsions:
REMARK  status: ('A' for Active; 'I' for Inactive)
REMARK    1  A    between atoms: O_5  and  C_10 
REMARK    2  A    between atoms: O_5  and  C_15 
REMARK    3  A    between atoms: C_9  and  C_16 
REMARK    4  A    between atoms: C_15  and  C_17 
ROOT
HETATM    1  O   LIG     1      -1.827  -2.141  -0.005  1.00  0.00    -0.275 OA
HETATM    2  O   LIG     1      -3.700  -3.452   0.003  1.00  0.00    -0.260 OA
HETATM    3  C   LIG     1      -2.070   0.290  -0.003  1.00  0.00     0.013 A 
HETATM    4  C   LIG     1      -1.263  -0.849  -0.007  1.00  0.00     0.093 A 
HETATM    5  C   LIG     1      -3.529   0.119   0.004  1.00  0.00     0.066 A 
HETATM    6  C   LIG     1       0.744   0.473  -0.016  1.00  0.00     0.071 A 
HETATM    7  C   LIG     1      -1.433   1.538  -0.005  1.00  0.00     0.018 A 
HETATM    8  C   LIG     1       0.131  -0.775  -0.014  1.00  0.00     0.075 A 
HETATM    9  C   LIG     1      -0.036   1.628  -0.011  1.00  0.00     0.038 A 
HETATM   10  C   LIG     1      -4.037  -1.122   0.006  1.00  0.00     0.099 A 
HETATM   11  C   LIG     1      -3.199  -2.333   0.001  1.00  0.00     0.289 A 
ENDROOT
BRANCH   6  12
HETATM   12  O   LIG     1       2.102   0.567  -0.022  1.00  0.00    -0.347 OA
BRANCH  12  13
HETATM   13  C   LIG     1       2.838  -0.655  -0.026  1.00  0.00     0.214 C 
BRANCH  13  14
HETATM   14  C   LIG     1       4.290  -0.293  -0.008  1.00  0.00    -0.034 A 
HETATM   15  C   LIG     1       4.974  -0.114  -1.207  1.00  0.00     0.009 A 
HETATM   16  C   LIG     1       6.327   0.224  -1.190  1.00  0.00     0.001 A 
HETATM   17  C   LIG     1       6.991   0.381   0.027  1.00  0.00     0.000 A 
HETATM   18  C   LIG     1       6.302   0.200   1.226  1.00  0.00     0.001 A 
HETATM   19  C   LIG     1       4.949  -0.137   1.209  1.00  0.00     0.009 A 
ENDBRANCH  13  14
ENDBRANCH  12  13
ENDBRANCH   6  12
BRANCH   5  20
HETATM   20  C   LIG     1      -4.424   1.323   0.009  1.00  0.00     0.418 C 
HETATM   21  F   LIG     1      -5.220   1.336  -1.078  1.00  0.00    -0.166 F 
HETATM   22  F   LIG     1      -3.699   2.459   0.006  1.00  0.00    -0.166 F 
HETATM   23  F   LIG     1      -5.212   1.336   1.102  1.00  0.00    -0.166 F 
ENDBRANCH   5  20
TORSDOF 4
