REMARK  3 active torsions:
REMARK  status: ('A' for Active; 'I' for Inactive)
REMARK    1  A    between atoms: N_6  and  N_7 
REMARK       I    between atoms: N_6  and  C_10 
REMARK       I    between atoms: N_7  and  C_13 
REMARK    2  A    between atoms: C_8  and  C_10 
REMARK    3  A    between atoms: C_9  and  C_13 
ROOT
HETATM    1  O   LIG     1      -1.245   1.586   1.180  1.00  0.00    -0.266 OA
HETATM    2  N   LIG     1      -0.609  -0.308   0.009  1.00  0.00    -0.263 N 
HETATM    3  C   LIG     1      -1.527   0.592   0.515  1.00  0.00     0.271 C 
HETATM    4  H   LIG     1      -0.858  -1.130  -0.532  1.00  0.00     0.190 HD
ENDROOT
BRANCH   2   5
HETATM    5  N   LIG     1       0.728  -0.096   0.253  1.00  0.00    -0.263 N 
HETATM    6  C   LIG     1       1.684  -0.575  -0.644  1.00  0.00     0.270 C 
HETATM    7  O   LIG     1       1.378  -1.198  -1.677  1.00  0.00    -0.266 OA
HETATM    8  H   LIG     1       0.952   0.353   1.135  1.00  0.00     0.190 HD
BRANCH   6   9
HETATM    9  C   LIG     1       3.078  -0.329  -0.312  1.00  0.00     0.033 A 
HETATM   10  C   LIG     1       4.069  -1.192  -0.781  1.00  0.00     0.020 A 
HETATM   11  C   LIG     1       5.406  -0.956  -0.463  1.00  0.00     0.043 A 
HETATM   12  C   LIG     1       5.753   0.143   0.323  1.00  0.00     0.116 A 
HETATM   13  F   LIG     1       7.037   0.369   0.628  1.00  0.00    -0.206 F 
HETATM   14  C   LIG     1       4.763   1.006   0.792  1.00  0.00     0.043 A 
HETATM   15  C   LIG     1       3.425   0.769   0.474  1.00  0.00     0.020 A 
ENDBRANCH   6   9
ENDBRANCH   2   5
BRANCH   3  16
HETATM   16  C   LIG     1      -2.953   0.288   0.227  1.00  0.00     0.053 A 
HETATM   17  C   LIG     1      -3.748   1.178  -0.465  1.00  0.00     0.026 A 
HETATM   18 BR   LIG     1      -3.104   2.845  -1.104  1.00  0.00    -0.050 Br
HETATM   19  C   LIG     1      -5.081   0.847  -0.709  1.00  0.00     0.023 A 
HETATM   20  C   LIG     1      -5.591  -0.370  -0.255  1.00  0.00     0.043 A 
HETATM   21  C   LIG     1      -4.769  -1.254   0.442  1.00  0.00     0.117 A 
HETATM   22  F   LIG     1      -5.259  -2.422   0.878  1.00  0.00    -0.206 F 
HETATM   23  C   LIG     1      -3.436  -0.923   0.686  1.00  0.00     0.060 A 
ENDBRANCH   3  16
TORSDOF 3
