REMARK  5 active torsions:
REMARK  status: ('A' for Active; 'I' for Inactive)
REMARK    1  A    between atoms: O_2  and  C_16 
REMARK    2  A    between atoms: O_2  and  C_23 
REMARK    3  A    between atoms: N_7  and  C_15 
REMARK    4  A    between atoms: C_10  and  C_16 
REMARK    5  A    between atoms: C_23  and  C_24 
ROOT
HETATM    1  N   LIG     1      -1.127  -0.925  -0.641  1.00  0.00    -0.350 N 
HETATM    2  C   LIG     1       0.167  -0.791   0.034  1.00  0.00     0.185 C 
HETATM    3  C   LIG     1       0.635  -2.122   0.626  1.00  0.00     0.035 C 
HETATM    4  C   LIG     1       0.499  -3.296  -0.343  1.00  0.00     0.004 C 
HETATM    5  C   LIG     1      -1.280  -2.032  -1.587  1.00  0.00     0.125 C 
HETATM    6  C   LIG     1      -0.908  -3.353  -0.926  1.00  0.00     0.020 C 
ENDROOT
BRANCH   1   7
HETATM    7  C   LIG     1      -2.094   0.014  -0.498  1.00  0.00     0.151 A 
HETATM    8  N   LIG     1      -2.164   1.125  -1.188  1.00  0.00    -0.141 NA
HETATM    9  S   LIG     1      -3.469   2.037  -0.757  1.00  0.00     0.286 S 
HETATM   10  O   LIG     1      -3.048   3.239  -0.068  1.00  0.00    -0.198 OA
HETATM   11  O   LIG     1      -4.451   2.061  -1.822  1.00  0.00    -0.198 OA
HETATM   12  C   LIG     1      -4.036   0.922   0.446  1.00  0.00     0.095 A 
HETATM   13  C   LIG     1      -3.179  -0.165   0.490  1.00  0.00     0.034 A 
HETATM   14  C   LIG     1      -5.147   1.047   1.249  1.00  0.00     0.026 A 
HETATM   15  C   LIG     1      -3.412  -1.203   1.372  1.00  0.00     0.017 A 
HETATM   16  C   LIG     1      -4.533  -1.110   2.205  1.00  0.00     0.001 A 
HETATM   17  C   LIG     1      -5.392   0.005   2.144  1.00  0.00     0.002 A 
ENDBRANCH   1   7
BRANCH   2  18
HETATM   18  C   LIG     1       1.161  -0.226  -0.934  1.00  0.00     0.282 C 
HETATM   19  O   LIG     1       0.907   0.034  -2.103  1.00  0.00    -0.263 OA
BRANCH  18  20
HETATM   20  O   LIG     1       2.361  -0.056  -0.309  1.00  0.00    -0.313 OA
BRANCH  20  21
HETATM   21  C   LIG     1       3.408   0.481  -1.123  1.00  0.00     0.246 C 
BRANCH  21  22
HETATM   22  C   LIG     1       4.625   0.588  -0.258  1.00  0.00     0.105 A 
HETATM   23  O   LIG     1       4.768   1.755   0.395  1.00  0.00    -0.215 OA
HETATM   24  N   LIG     1       5.936   1.692   1.144  1.00  0.00    -0.133 NA
HETATM   25  C   LIG     1       6.439   0.478   0.899  1.00  0.00     0.060 A 
HETATM   26  C   LIG     1       5.638  -0.262   0.012  1.00  0.00     0.066 A 
HETATM   27  C   LIG     1       7.697   0.062   1.540  1.00  0.00     0.072 C 
ENDBRANCH  21  22
ENDBRANCH  20  21
ENDBRANCH  18  20
ENDBRANCH   2  18
TORSDOF 5
