REMARK  9 active torsions:
REMARK  status: ('A' for Active; 'I' for Inactive)
REMARK    1  A    between atoms: O_4  and  C_22 
REMARK    2  A    between atoms: O_5  and  C_21 
REMARK    3  A    between atoms: N_6  and  C_12 
REMARK    4  A    between atoms: N_7  and  C_15 
REMARK    5  A    between atoms: N_7  and  C_16 
REMARK    6  A    between atoms: N_8  and  N_9 
REMARK    7  A    between atoms: N_8  and  C_16 
REMARK    8  A    between atoms: C_12  and  C_15 
REMARK    9  A    between atoms: C_17  and  C_18 
ROOT
HETATM    1  N   LIG     1      -0.650  -2.787  -0.039  1.00  0.00    -0.254 N 
HETATM    2  H   LIG     1      -0.289  -3.628  -0.477  1.00  0.00     0.191 HD
ENDROOT
BRANCH   1   3
HETATM    3  N   LIG     1       0.188  -1.733   0.111  1.00  0.00    -0.184 NA
HETATM    4  C   LIG     1       1.382  -1.943  -0.338  1.00  0.00     0.151 C 
BRANCH   4   5
HETATM    5  C   LIG     1       2.434  -0.914  -0.264  1.00  0.00     0.003 A 
HETATM    6  C   LIG     1       2.094   0.302   0.312  1.00  0.00     0.053 A 
HETATM    7  C   LIG     1       3.055   1.308   0.405  1.00  0.00     0.099 A 
HETATM    8  C   LIG     1       4.345   1.088  -0.078  1.00  0.00     0.102 A 
HETATM    9  C   LIG     1       4.674  -0.139  -0.655  1.00  0.00     0.059 A 
HETATM   10  C   LIG     1       3.713  -1.145  -0.748  1.00  0.00     0.025 A 
HETATM   11 BR   LIG     1       4.212  -2.796  -1.541  1.00  0.00    -0.050 Br
BRANCH   7  12
HETATM   12  O   LIG     1       2.722   2.502   0.971  1.00  0.00    -0.358 OA
HETATM   13  H   LIG     1       3.492   3.095   0.917  1.00  0.00     0.217 HD
ENDBRANCH   7  12
BRANCH   8  14
HETATM   14  O   LIG     1       5.293   2.063   0.008  1.00  0.00    -0.353 OA
HETATM   15  C   LIG     1       6.094   2.086   1.187  1.00  0.00     0.210 C 
ENDBRANCH   8  14
ENDBRANCH   4   5
ENDBRANCH   1   3
BRANCH   1  16
HETATM   16  C   LIG     1      -1.962  -2.723   0.390  1.00  0.00     0.188 C 
HETATM   17  S   LIG     1      -2.961  -4.056   0.179  1.00  0.00    -0.040 SA
BRANCH  16  18
HETATM   18  N   LIG     1      -2.342  -1.518   0.974  1.00  0.00    -0.364 N 
HETATM   19  H   LIG     1      -1.629  -0.797   1.029  1.00  0.00     0.162 HD
BRANCH  18  20
HETATM   20  C   LIG     1      -3.638  -1.186   1.500  1.00  0.00     0.150 C 
BRANCH  20  21
HETATM   21  C   LIG     1      -4.568  -0.637   0.435  1.00  0.00     0.254 C 
BRANCH  21  22
HETATM   22  N   LIG     1      -4.005   0.637  -0.125  1.00  0.00    -0.066 N 
HETATM   23  C   LIG     1      -3.853   1.704   0.933  1.00  0.00     0.261 C 
HETATM   24  C   LIG     1      -3.230   2.931   0.289  1.00  0.00     0.195 C 
HETATM   25  O   LIG     1      -4.040   3.394  -0.793  1.00  0.00    -0.388 OA
HETATM   26  C   LIG     1      -4.143   2.408  -1.821  1.00  0.00     0.195 C 
HETATM   27  C   LIG     1      -4.815   1.153  -1.292  1.00  0.00     0.261 C 
HETATM   28  H   LIG     1      -3.065   0.418  -0.482  1.00  0.00     0.280 HD
ENDBRANCH  21  22
ENDBRANCH  20  21
ENDBRANCH  18  20
ENDBRANCH  16  18
ENDBRANCH   1  16
TORSDOF 9
