MODEL 1
REMARK VINA RESULT:      -6.3      0.000      0.000
REMARK  1 active torsions:
REMARK  status: ('A' for Active; 'I' for Inactive)
REMARK    1  A    between atoms: C_5  and  C_13 
ROOT
HETATM    1  C   LIG     1      27.955  10.506  -6.468  1.00  0.00    -0.017 C 
HETATM    2  C   LIG     1      26.941   9.360  -6.849  1.00  0.00    -0.006 C 
HETATM    3  C   LIG     1      28.094  10.536  -4.915  1.00  0.00     0.023 C 
HETATM    4  C   LIG     1      27.440  11.867  -6.953  1.00  0.00    -0.075 C 
HETATM    5  C   LIG     1      28.836  11.767  -4.363  1.00  0.00     0.014 C 
HETATM    6  C   LIG     1      28.107  13.098  -6.384  1.00  0.00     0.035 C 
HETATM    7  C   LIG     1      26.433   9.509  -8.291  1.00  0.00     0.009 C 
HETATM    8  C   LIG     1      28.169  13.054  -4.860  1.00  0.00     0.013 C 
HETATM    9  C   LIG     1      29.342  10.256  -7.107  1.00  0.00     0.020 C 
HETATM   10  C   LIG     1      25.728  10.848  -8.489  1.00  0.00     0.028 C 
HETATM   11  C   LIG     1      26.436  11.994  -7.839  1.00  0.00    -0.023 C 
HETATM   12  C   LIG     1      27.476   7.938  -6.640  1.00  0.00     0.011 C 
ENDROOT
BRANCH   5  13
HETATM   13  C   LIG     1      28.871  11.736  -2.863  1.00  0.00    -0.089 C 
HETATM   14  C   LIG     1      28.166  12.857  -2.161  1.00  0.00     0.043 C 
HETATM   15  C   LIG     1      29.497  10.759  -2.189  1.00  0.00     0.014 C 
ENDBRANCH   5  13
TORSDOF 1
ENDMDL
MODEL 2
REMARK VINA RESULT:      -5.6      1.152      5.170
REMARK  1 active torsions:
REMARK  status: ('A' for Active; 'I' for Inactive)
REMARK    1  A    between atoms: C_5  and  C_13 
ROOT
HETATM    1  C   LIG     1      27.987  11.319  -6.210  1.00  0.00    -0.017 C 
HETATM    2  C   LIG     1      28.063  12.673  -5.405  1.00  0.00    -0.006 C 
HETATM    3  C   LIG     1      26.620  11.274  -6.958  1.00  0.00     0.023 C 
HETATM    4  C   LIG     1      28.080  10.118  -5.260  1.00  0.00    -0.075 C 
HETATM    5  C   LIG     1      26.271   9.906  -7.573  1.00  0.00     0.014 C 
HETATM    6  C   LIG     1      27.688   8.769  -5.816  1.00  0.00     0.035 C 
HETATM    7  C   LIG     1      29.165  12.635  -4.336  1.00  0.00     0.009 C 
HETATM    8  C   LIG     1      26.325   8.813  -6.499  1.00  0.00     0.013 C 
HETATM    9  C   LIG     1      29.141  11.217  -7.236  1.00  0.00     0.020 C 
HETATM   10  C   LIG     1      28.924  11.506  -3.338  1.00  0.00     0.028 C 
HETATM   11  C   LIG     1      28.484  10.229  -3.981  1.00  0.00    -0.023 C 
HETATM   12  C   LIG     1      28.237  13.924  -6.274  1.00  0.00     0.011 C 
ENDROOT
BRANCH   5  13
HETATM   13  C   LIG     1      24.918   9.945  -8.221  1.00  0.00    -0.089 C 
HETATM   14  C   LIG     1      23.740   9.921  -7.294  1.00  0.00     0.043 C 
HETATM   15  C   LIG     1      24.772   9.999  -9.553  1.00  0.00     0.014 C 
ENDBRANCH   5  13
TORSDOF 1
ENDMDL
MODEL 3
REMARK VINA RESULT:      -5.6      1.930      5.554
REMARK  1 active torsions:
REMARK  status: ('A' for Active; 'I' for Inactive)
REMARK    1  A    between atoms: C_5  and  C_13 
ROOT
HETATM    1  C   LIG     1      26.805  10.352  -7.317  1.00  0.00    -0.017 C 
HETATM    2  C   LIG     1      26.818  11.838  -6.791  1.00  0.00    -0.006 C 
HETATM    3  C   LIG     1      25.323   9.940  -7.575  1.00  0.00     0.023 C 
HETATM    4  C   LIG     1      27.417   9.405  -6.277  1.00  0.00    -0.075 C 
HETATM    5  C   LIG     1      25.113   8.436  -7.833  1.00  0.00     0.014 C 
HETATM    6  C   LIG     1      27.178   7.925  -6.469  1.00  0.00     0.035 C 
HETATM    7  C   LIG     1      28.161  12.196  -6.136  1.00  0.00     0.009 C 
HETATM    8  C   LIG     1      25.700   7.613  -6.681  1.00  0.00     0.013 C 
HETATM    9  C   LIG     1      27.614  10.220  -8.630  1.00  0.00     0.020 C 
HETATM   10  C   LIG     1      28.458  11.275  -4.956  1.00  0.00     0.028 C 
HETATM   11  C   LIG     1      28.134   9.840  -5.226  1.00  0.00    -0.023 C 
HETATM   12  C   LIG     1      26.468  12.893  -7.848  1.00  0.00     0.011 C 
ENDROOT
BRANCH   5  13
HETATM   13  C   LIG     1      23.655   8.128  -8.014  1.00  0.00    -0.089 C 
HETATM   14  C   LIG     1      23.331   6.927  -8.850  1.00  0.00     0.043 C 
HETATM   15  C   LIG     1      22.697   8.885  -7.457  1.00  0.00     0.014 C 
ENDBRANCH   5  13
TORSDOF 1
ENDMDL
MODEL 4
REMARK VINA RESULT:      -5.5      1.378      1.666
REMARK  1 active torsions:
REMARK  status: ('A' for Active; 'I' for Inactive)
REMARK    1  A    between atoms: C_5  and  C_13 
ROOT
HETATM    1  C   LIG     1      27.102  10.546  -6.743  1.00  0.00    -0.017 C 
HETATM    2  C   LIG     1      26.487   9.125  -6.445  1.00  0.00    -0.006 C 
HETATM    3  C   LIG     1      28.046  10.926  -5.561  1.00  0.00     0.023 C 
HETATM    4  C   LIG     1      25.994  11.601  -6.862  1.00  0.00    -0.075 C 
HETATM    5  C   LIG     1      28.516  12.392  -5.563  1.00  0.00     0.014 C 
HETATM    6  C   LIG     1      26.417  13.051  -6.807  1.00  0.00     0.035 C 
HETATM    7  C   LIG     1      25.260   8.842  -7.326  1.00  0.00     0.009 C 
HETATM    8  C   LIG     1      27.308  13.335  -5.602  1.00  0.00     0.013 C 
HETATM    9  C   LIG     1      27.907  10.536  -8.065  1.00  0.00     0.020 C 
HETATM   10  C   LIG     1      24.170   9.885  -7.099  1.00  0.00     0.028 C 
HETATM   11  C   LIG     1      24.695  11.282  -7.002  1.00  0.00    -0.023 C 
HETATM   12  C   LIG     1      27.479   7.962  -6.562  1.00  0.00     0.011 C 
ENDROOT
BRANCH   5  13
HETATM   13  C   LIG     1      29.370  12.676  -4.363  1.00  0.00    -0.089 C 
HETATM   14  C   LIG     1      28.686  12.603  -3.031  1.00  0.00     0.043 C 
HETATM   15  C   LIG     1      30.673  12.977  -4.475  1.00  0.00     0.014 C 
ENDBRANCH   5  13
TORSDOF 1
ENDMDL
MODEL 5
REMARK VINA RESULT:      -5.5      1.678      4.043
REMARK  1 active torsions:
REMARK  status: ('A' for Active; 'I' for Inactive)
REMARK    1  A    between atoms: C_5  and  C_13 
ROOT
HETATM    1  C   LIG     1      25.481   9.750  -7.921  1.00  0.00    -0.017 C 
HETATM    2  C   LIG     1      25.092  10.085  -9.411  1.00  0.00    -0.006 C 
HETATM    3  C   LIG     1      26.740  10.589  -7.545  1.00  0.00     0.023 C 
HETATM    4  C   LIG     1      25.807   8.258  -7.769  1.00  0.00    -0.075 C 
HETATM    5  C   LIG     1      27.409  10.183  -6.219  1.00  0.00     0.014 C 
HETATM    6  C   LIG     1      26.518   7.835  -6.505  1.00  0.00     0.035 C 
HETATM    7  C   LIG     1      24.136   9.035  -9.998  1.00  0.00     0.009 C 
HETATM    8  C   LIG     1      27.753   8.689  -6.237  1.00  0.00     0.013 C 
HETATM    9  C   LIG     1      24.323  10.094  -6.954  1.00  0.00     0.020 C 
HETATM   10  C   LIG     1      24.766   7.646  -9.976  1.00  0.00     0.028 C 
HETATM   11  C   LIG     1      25.495   7.344  -8.705  1.00  0.00    -0.023 C 
HETATM   12  C   LIG     1      24.502  11.485  -9.619  1.00  0.00     0.011 C 
ENDROOT
BRANCH   5  13
HETATM   13  C   LIG     1      28.639  11.006  -5.972  1.00  0.00    -0.089 C 
HETATM   14  C   LIG     1      28.784  11.581  -4.595  1.00  0.00     0.043 C 
HETATM   15  C   LIG     1      29.557  11.214  -6.928  1.00  0.00     0.014 C 
ENDBRANCH   5  13
TORSDOF 1
ENDMDL
MODEL 6
REMARK VINA RESULT:      -5.4      1.652      4.714
REMARK  1 active torsions:
REMARK  status: ('A' for Active; 'I' for Inactive)
REMARK    1  A    between atoms: C_5  and  C_13 
ROOT
HETATM    1  C   LIG     1      28.669  11.995  -5.615  1.00  0.00    -0.017 C 
HETATM    2  C   LIG     1      29.597  12.079  -4.344  1.00  0.00    -0.006 C 
HETATM    3  C   LIG     1      27.935  10.620  -5.592  1.00  0.00     0.023 C 
HETATM    4  C   LIG     1      29.501  12.100  -6.900  1.00  0.00    -0.075 C 
HETATM    5  C   LIG     1      27.198  10.265  -6.896  1.00  0.00     0.014 C 
HETATM    6  C   LIG     1      28.824  11.701  -8.191  1.00  0.00     0.035 C 
HETATM    7  C   LIG     1      30.646  13.194  -4.480  1.00  0.00     0.009 C 
HETATM    8  C   LIG     1      28.164  10.331  -8.085  1.00  0.00     0.013 C 
HETATM    9  C   LIG     1      27.625  13.138  -5.618  1.00  0.00     0.020 C 
HETATM   10  C   LIG     1      31.535  12.964  -5.699  1.00  0.00     0.028 C 
HETATM   11  C   LIG     1      30.779  12.517  -6.909  1.00  0.00    -0.023 C 
HETATM   12  C   LIG     1      28.848  12.243  -3.015  1.00  0.00     0.011 C 
ENDROOT
BRANCH   5  13
HETATM   13  C   LIG     1      26.572   8.905  -6.798  1.00  0.00    -0.089 C 
HETATM   14  C   LIG     1      25.102   8.830  -7.085  1.00  0.00     0.043 C 
HETATM   15  C   LIG     1      27.287   7.817  -6.474  1.00  0.00     0.014 C 
ENDBRANCH   5  13
TORSDOF 1
ENDMDL
MODEL 7
REMARK VINA RESULT:      -5.1     24.085     26.438
REMARK  1 active torsions:
REMARK  status: ('A' for Active; 'I' for Inactive)
REMARK    1  A    between atoms: C_5  and  C_13 
ROOT
HETATM    1  C   LIG     1      35.980  -9.442   7.947  1.00  0.00    -0.017 C 
HETATM    2  C   LIG     1      36.795  -8.095   7.862  1.00  0.00    -0.006 C 
HETATM    3  C   LIG     1      34.478  -9.119   7.679  1.00  0.00     0.023 C 
HETATM    4  C   LIG     1      36.119 -10.071   9.340  1.00  0.00    -0.075 C 
HETATM    5  C   LIG     1      33.510 -10.276   7.990  1.00  0.00     0.014 C 
HETATM    6  C   LIG     1      35.144 -11.169   9.698  1.00  0.00     0.035 C 
HETATM    7  C   LIG     1      38.187  -8.234   8.498  1.00  0.00     0.009 C 
HETATM    8  C   LIG     1      33.701 -10.752   9.434  1.00  0.00     0.013 C 
HETATM    9  C   LIG     1      36.484 -10.463   6.900  1.00  0.00     0.020 C 
HETATM   10  C   LIG     1      38.083  -8.630   9.967  1.00  0.00     0.028 C 
HETATM   11  C   LIG     1      37.051  -9.681  10.227  1.00  0.00    -0.023 C 
HETATM   12  C   LIG     1      36.934  -7.520   6.447  1.00  0.00     0.011 C 
ENDROOT
BRANCH   5  13
HETATM   13  C   LIG     1      32.089  -9.854   7.755  1.00  0.00    -0.089 C 
HETATM   14  C   LIG     1      31.047 -10.920   7.918  1.00  0.00     0.043 C 
HETATM   15  C   LIG     1      31.769  -8.595   7.421  1.00  0.00     0.014 C 
ENDBRANCH   5  13
TORSDOF 1
ENDMDL
MODEL 8
REMARK VINA RESULT:      -5.0      2.616      3.780
REMARK  1 active torsions:
REMARK  status: ('A' for Active; 'I' for Inactive)
REMARK    1  A    between atoms: C_5  and  C_13 
ROOT
HETATM    1  C   LIG     1      29.242  11.897  -6.518  1.00  0.00    -0.017 C 
HETATM    2  C   LIG     1      29.005  10.731  -7.552  1.00  0.00    -0.006 C 
HETATM    3  C   LIG     1      30.746  12.302  -6.578  1.00  0.00     0.023 C 
HETATM    4  C   LIG     1      28.902  11.435  -5.095  1.00  0.00    -0.075 C 
HETATM    5  C   LIG     1      31.203  13.238  -5.443  1.00  0.00     0.014 C 
HETATM    6  C   LIG     1      29.388  12.301  -3.956  1.00  0.00     0.035 C 
HETATM    7  C   LIG     1      27.680  10.000  -7.288  1.00  0.00     0.009 C 
HETATM    8  C   LIG     1      30.875  12.618  -4.080  1.00  0.00     0.013 C 
HETATM    9  C   LIG     1      28.362  13.125  -6.853  1.00  0.00     0.020 C 
HETATM   10  C   LIG     1      27.655   9.398  -5.886  1.00  0.00     0.028 C 
HETATM   11  C   LIG     1      28.210  10.310  -4.839  1.00  0.00    -0.023 C 
HETATM   12  C   LIG     1      29.067  11.160  -9.023  1.00  0.00     0.011 C 
ENDROOT
BRANCH   5  13
HETATM   13  C   LIG     1      32.672  13.527  -5.553  1.00  0.00    -0.089 C 
HETATM   14  C   LIG     1      33.163  13.954  -6.903  1.00  0.00     0.043 C 
HETATM   15  C   LIG     1      33.497  13.410  -4.502  1.00  0.00     0.014 C 
ENDBRANCH   5  13
TORSDOF 1
ENDMDL
MODEL 9
REMARK VINA RESULT:      -4.9      1.347      2.258
REMARK  1 active torsions:
REMARK  status: ('A' for Active; 'I' for Inactive)
REMARK    1  A    between atoms: C_5  and  C_13 
ROOT
HETATM    1  C   LIG     1      27.165  10.641  -7.256  1.00  0.00    -0.017 C 
HETATM    2  C   LIG     1      25.788  11.103  -7.869  1.00  0.00    -0.006 C 
HETATM    3  C   LIG     1      27.309  11.283  -5.843  1.00  0.00     0.023 C 
HETATM    4  C   LIG     1      28.332  11.102  -8.139  1.00  0.00    -0.075 C 
HETATM    5  C   LIG     1      28.711  11.153  -5.220  1.00  0.00     0.014 C 
HETATM    6  C   LIG     1      29.716  11.042  -7.536  1.00  0.00     0.035 C 
HETATM    7  C   LIG     1      25.733  10.863  -9.385  1.00  0.00     0.009 C 
HETATM    8  C   LIG     1      29.768  11.723  -6.172  1.00  0.00     0.013 C 
HETATM    9  C   LIG     1      27.228   9.100  -7.132  1.00  0.00     0.020 C 
HETATM   10  C   LIG     1      26.846  11.621 -10.102  1.00  0.00     0.028 C 
HETATM   11  C   LIG     1      28.163  11.550  -9.396  1.00  0.00    -0.023 C 
HETATM   12  C   LIG     1      24.552  10.479  -7.208  1.00  0.00     0.011 C 
ENDROOT
BRANCH   5  13
HETATM   13  C   LIG     1      28.767  11.847  -3.890  1.00  0.00    -0.089 C 
HETATM   14  C   LIG     1      29.104  10.988  -2.709  1.00  0.00     0.043 C 
HETATM   15  C   LIG     1      28.531  13.162  -3.767  1.00  0.00     0.014 C 
ENDBRANCH   5  13
TORSDOF 1
ENDMDL
